#======================================================================

# CRYSTAL DATA

#----------------------------------------------------------------------

data_VESTA_phase_1


_chemical_name_common                  ''
_cell_length_a                         92.26799
_cell_length_b                         92.26799
_cell_length_c                         92.26799
_cell_angle_alpha                      90
_cell_angle_beta                       90
_cell_angle_gamma                      90
_space_group_name_H-M_alt              'P 1'
_space_group_IT_number                 1

loop_
_space_group_symop_operation_xyz
   'x, y, z'

loop_
   _atom_site_label
   _atom_site_occupancy
   _atom_site_fract_x
   _atom_site_fract_y
   _atom_site_fract_z
   _atom_site_adp_type
   _atom_site_B_iso_or_equiv
   _atom_site_type_symbol
   S1         1.0     0.289805      0.348346      0.484599     Biso  1.000000 S
   S2         1.0     0.289805      0.348346      0.450596     Biso  1.000000 S
   S3         1.0     0.272743      0.377899      0.484599     Biso  1.000000 S
   S4         1.0     0.272743      0.377899      0.450596     Biso  1.000000 S
   S5         1.0     0.340993      0.318793      0.484599     Biso  1.000000 S
   S6         1.0     0.340993      0.318793      0.450596     Biso  1.000000 S
   S7         1.0     0.323930      0.348346      0.484599     Biso  1.000000 S
   S8         1.0     0.323930      0.348346      0.450596     Biso  1.000000 S
   Mo1        1.0     0.306868      0.338495      0.467597     Biso  1.000000 Mo
   S9         1.0     0.306868      0.377899      0.484599     Biso  1.000000 S
   S10        1.0     0.306868      0.377899      0.450596     Biso  1.000000 S
   Mo2        1.0     0.289805      0.368048      0.467597     Biso  1.000000 Mo
   S11        1.0     0.289805      0.407452      0.484599     Biso  1.000000 S
   S12        1.0     0.289805      0.407452      0.450596     Biso  1.000000 S
   Mo3        1.0     0.272743      0.397601      0.467597     Biso  1.000000 Mo
   S13        1.0     0.272743      0.437005      0.484599     Biso  1.000000 S
   S14        1.0     0.272743      0.437005      0.450596     Biso  1.000000 S
   S15        1.0     0.392180      0.289240      0.484599     Biso  1.000000 S
   S16        1.0     0.392180      0.289240      0.450596     Biso  1.000000 S
   S17        1.0     0.375117      0.318793      0.484599     Biso  1.000000 S
   S18        1.0     0.375117      0.318793      0.450596     Biso  1.000000 S
   Mo4        1.0     0.358055      0.308942      0.467597     Biso  1.000000 Mo
   S19        1.0     0.358055      0.348346      0.484599     Biso  1.000000 S
   S20        1.0     0.358055      0.348346      0.450596     Biso  1.000000 S
   Mo5        1.0     0.340993      0.338495      0.467597     Biso  1.000000 Mo
   S21        1.0     0.340993      0.377899      0.484599     Biso  1.000000 S
   S22        1.0     0.340993      0.377899      0.450596     Biso  1.000000 S
   Mo6        1.0     0.323930      0.368048      0.467597     Biso  1.000000 Mo
   S23        1.0     0.323930      0.407452      0.484599     Biso  1.000000 S
   S24        1.0     0.323930      0.407452      0.450596     Biso  1.000000 S
   Mo7        1.0     0.306868      0.397601      0.467597     Biso  1.000000 Mo
   S25        1.0     0.306868      0.437005      0.484599     Biso  1.000000 S
   S26        1.0     0.306868      0.437005      0.450596     Biso  1.000000 S
   Mo8        1.0     0.289805      0.427154      0.467597     Biso  1.000000 Mo
   S27        1.0     0.289805      0.466558      0.484599     Biso  1.000000 S
   S28        1.0     0.289805      0.466558      0.450596     Biso  1.000000 S
   Mo9        1.0     0.272743      0.456707      0.467597     Biso  1.000000 Mo
   S29        1.0     0.272743      0.496110      0.484599     Biso  1.000000 S
   S30        1.0     0.272743      0.496110      0.450596     Biso  1.000000 S
   S31        1.0     0.255681      0.525663      0.484599     Biso  1.000000 S
   S32        1.0     0.255681      0.525663      0.450596     Biso  1.000000 S
   S33        1.0     0.443367      0.259687      0.484599     Biso  1.000000 S
   S34        1.0     0.443367      0.259687      0.450596     Biso  1.000000 S
   S35        1.0     0.426304      0.289240      0.484599     Biso  1.000000 S
   S36        1.0     0.426304      0.289240      0.450596     Biso  1.000000 S
   Mo10       1.0     0.409242      0.279389      0.467597     Biso  1.000000 Mo
   S37        1.0     0.409242      0.318793      0.484599     Biso  1.000000 S
   S38        1.0     0.409242      0.318793      0.450596     Biso  1.000000 S
   Mo11       1.0     0.392180      0.308942      0.467597     Biso  1.000000 Mo
   S39        1.0     0.392180      0.348346      0.484599     Biso  1.000000 S
   S40        1.0     0.392180      0.348346      0.450596     Biso  1.000000 S
   Mo12       1.0     0.375117      0.338495      0.467597     Biso  1.000000 Mo
   S41        1.0     0.375117      0.377899      0.484599     Biso  1.000000 S
   S42        1.0     0.375117      0.377899      0.450596     Biso  1.000000 S
   Mo13       1.0     0.358055      0.368048      0.467597     Biso  1.000000 Mo
   S43        1.0     0.358055      0.407452      0.484599     Biso  1.000000 S
   S44        1.0     0.358055      0.407452      0.450596     Biso  1.000000 S
   Mo14       1.0     0.340993      0.397601      0.467597     Biso  1.000000 Mo
   S45        1.0     0.340993      0.437005      0.484599     Biso  1.000000 S
   S46        1.0     0.340993      0.437005      0.450596     Biso  1.000000 S
   Mo15       1.0     0.323930      0.427154      0.467597     Biso  1.000000 Mo
   S47        1.0     0.323930      0.466558      0.484599     Biso  1.000000 S
   S48        1.0     0.323930      0.466558      0.450596     Biso  1.000000 S
   Mo16       1.0     0.306868      0.456707      0.467597     Biso  1.000000 Mo
   S49        1.0     0.306868      0.496110      0.484599     Biso  1.000000 S
   S50        1.0     0.306868      0.496110      0.450596     Biso  1.000000 S
   Mo17       1.0     0.289805      0.486260      0.467597     Biso  1.000000 Mo
   S51        1.0     0.289805      0.525663      0.484599     Biso  1.000000 S
   S52        1.0     0.289805      0.525663      0.450596     Biso  1.000000 S
   Mo18       1.0     0.272743      0.515812      0.467597     Biso  1.000000 Mo
   S53        1.0     0.272743      0.555216      0.484599     Biso  1.000000 S
   S54        1.0     0.272743      0.555216      0.450596     Biso  1.000000 S
   Mo19       1.0     0.255681      0.545365      0.467597     Biso  1.000000 Mo
   S55        1.0     0.255681      0.584769      0.484599     Biso  1.000000 S
   S56        1.0     0.255681      0.584769      0.450596     Biso  1.000000 S
   S57        1.0     0.494554      0.230134      0.484599     Biso  1.000000 S
   S58        1.0     0.494554      0.230134      0.450596     Biso  1.000000 S
   S59        1.0     0.477492      0.259687      0.484599     Biso  1.000000 S
   S60        1.0     0.477492      0.259687      0.450596     Biso  1.000000 S
   Mo20       1.0     0.460429      0.249836      0.467597     Biso  1.000000 Mo
   S61        1.0     0.460429      0.289240      0.484599     Biso  1.000000 S
   S62        1.0     0.460429      0.289240      0.450596     Biso  1.000000 S
   Mo21       1.0     0.443367      0.279389      0.467597     Biso  1.000000 Mo
   S63        1.0     0.443367      0.318793      0.484599     Biso  1.000000 S
   S64        1.0     0.443367      0.318793      0.450596     Biso  1.000000 S
   Mo22       1.0     0.426304      0.308942      0.467597     Biso  1.000000 Mo
   S65        1.0     0.426304      0.348346      0.484599     Biso  1.000000 S
   S66        1.0     0.426304      0.348346      0.450596     Biso  1.000000 S
   Mo23       1.0     0.409242      0.338495      0.467597     Biso  1.000000 Mo
   S67        1.0     0.409242      0.377899      0.484599     Biso  1.000000 S
   S68        1.0     0.409242      0.377899      0.450596     Biso  1.000000 S
   Mo24       1.0     0.392180      0.368048      0.467597     Biso  1.000000 Mo
   S69        1.0     0.392180      0.407452      0.484599     Biso  1.000000 S
   S70        1.0     0.392180      0.407452      0.450596     Biso  1.000000 S
   Mo25       1.0     0.375117      0.397601      0.467597     Biso  1.000000 Mo
   S71        1.0     0.375117      0.437005      0.484599     Biso  1.000000 S
   S72        1.0     0.375117      0.437005      0.450596     Biso  1.000000 S
   Mo26       1.0     0.358055      0.427154      0.467597     Biso  1.000000 Mo
   S73        1.0     0.358055      0.466558      0.484599     Biso  1.000000 S
   S74        1.0     0.358055      0.466558      0.450596     Biso  1.000000 S
   Mo27       1.0     0.340993      0.456707      0.467597     Biso  1.000000 Mo
   S75        1.0     0.340993      0.496110      0.484599     Biso  1.000000 S
   S76        1.0     0.340993      0.496110      0.450596     Biso  1.000000 S
   Mo28       1.0     0.323930      0.486260      0.467597     Biso  1.000000 Mo
   S77        1.0     0.323930      0.525663      0.484599     Biso  1.000000 S
   S78        1.0     0.323930      0.525663      0.450596     Biso  1.000000 S
   Mo29       1.0     0.306868      0.515812      0.467597     Biso  1.000000 Mo
   S79        1.0     0.306868      0.555216      0.484599     Biso  1.000000 S
   S80        1.0     0.306868      0.555216      0.450596     Biso  1.000000 S
   Mo30       1.0     0.289805      0.545365      0.467597     Biso  1.000000 Mo
   S81        1.0     0.289805      0.584769      0.484599     Biso  1.000000 S
   S82        1.0     0.289805      0.584769      0.450596     Biso  1.000000 S
   Mo31       1.0     0.272743      0.574918      0.467597     Biso  1.000000 Mo
   S83        1.0     0.272743      0.614322      0.484599     Biso  1.000000 S
   S84        1.0     0.272743      0.614322      0.450596     Biso  1.000000 S
   Mo32       1.0     0.255681      0.604471      0.467597     Biso  1.000000 Mo
   S85        1.0     0.255681      0.643875      0.484599     Biso  1.000000 S
   S86        1.0     0.255681      0.643875      0.450596     Biso  1.000000 S
   S87        1.0     0.545741      0.200582      0.484599     Biso  1.000000 S
   S88        1.0     0.545741      0.200582      0.450596     Biso  1.000000 S
   S89        1.0     0.528679      0.230134      0.484599     Biso  1.000000 S
   S90        1.0     0.528679      0.230134      0.450596     Biso  1.000000 S
   Mo33       1.0     0.511616      0.220284      0.467597     Biso  1.000000 Mo
   S91        1.0     0.511616      0.259687      0.484599     Biso  1.000000 S
   S92        1.0     0.511616      0.259687      0.450596     Biso  1.000000 S
   Mo34       1.0     0.494554      0.249836      0.467597     Biso  1.000000 Mo
   S93        1.0     0.494554      0.289240      0.484599     Biso  1.000000 S
   S94        1.0     0.494554      0.289240      0.450596     Biso  1.000000 S
   Mo35       1.0     0.477492      0.279389      0.467597     Biso  1.000000 Mo
   S95        1.0     0.477492      0.318793      0.484599     Biso  1.000000 S
   S96        1.0     0.477492      0.318793      0.450596     Biso  1.000000 S
   Mo36       1.0     0.460429      0.308942      0.467597     Biso  1.000000 Mo
   S97        1.0     0.460429      0.348346      0.484599     Biso  1.000000 S
   S98        1.0     0.460429      0.348346      0.450596     Biso  1.000000 S
   Mo37       1.0     0.443367      0.338495      0.467597     Biso  1.000000 Mo
   S99        1.0     0.443367      0.377899      0.484599     Biso  1.000000 S
   S100       1.0     0.443367      0.377899      0.450596     Biso  1.000000 S
   Mo38       1.0     0.426304      0.368048      0.467597     Biso  1.000000 Mo
   S101       1.0     0.426304      0.407452      0.484599     Biso  1.000000 S
   S102       1.0     0.426304      0.407452      0.450596     Biso  1.000000 S
   Mo39       1.0     0.409242      0.397601      0.467597     Biso  1.000000 Mo
   S103       1.0     0.409242      0.437005      0.484599     Biso  1.000000 S
   S104       1.0     0.409242      0.437005      0.450596     Biso  1.000000 S
   Mo40       1.0     0.392180      0.427154      0.467597     Biso  1.000000 Mo
   S105       1.0     0.392180      0.466558      0.484599     Biso  1.000000 S
   S106       1.0     0.392180      0.466558      0.450596     Biso  1.000000 S
   Mo41       1.0     0.375117      0.456707      0.467597     Biso  1.000000 Mo
   S107       1.0     0.375117      0.496110      0.484599     Biso  1.000000 S
   S108       1.0     0.375117      0.496110      0.450596     Biso  1.000000 S
   Mo42       1.0     0.358055      0.486260      0.467597     Biso  1.000000 Mo
   S109       1.0     0.358055      0.525663      0.484599     Biso  1.000000 S
   S110       1.0     0.358055      0.525663      0.450596     Biso  1.000000 S
   Mo43       1.0     0.340993      0.515812      0.467597     Biso  1.000000 Mo
   S111       1.0     0.340993      0.555216      0.484599     Biso  1.000000 S
   S112       1.0     0.340993      0.555216      0.450596     Biso  1.000000 S
   Mo44       1.0     0.323930      0.545365      0.467597     Biso  1.000000 Mo
   S113       1.0     0.323930      0.584769      0.484599     Biso  1.000000 S
   S114       1.0     0.323930      0.584769      0.450596     Biso  1.000000 S
   Mo45       1.0     0.306868      0.574918      0.467597     Biso  1.000000 Mo
   S115       1.0     0.306868      0.614322      0.484599     Biso  1.000000 S
   S116       1.0     0.306868      0.614322      0.450596     Biso  1.000000 S
   Mo46       1.0     0.289805      0.604471      0.467597     Biso  1.000000 Mo
   S117       1.0     0.289805      0.643875      0.484599     Biso  1.000000 S
   S118       1.0     0.289805      0.643875      0.450596     Biso  1.000000 S
   Mo47       1.0     0.272743      0.634024      0.467597     Biso  1.000000 Mo
   S119       1.0     0.272743      0.673428      0.484599     Biso  1.000000 S
   S120       1.0     0.272743      0.673428      0.450596     Biso  1.000000 S
   Mo48       1.0     0.255681      0.663577      0.467597     Biso  1.000000 Mo
   S121       1.0     0.255681      0.702981      0.484599     Biso  1.000000 S
   S122       1.0     0.255681      0.702981      0.450596     Biso  1.000000 S
   S123       1.0     0.596928      0.171029      0.484599     Biso  1.000000 S
   S124       1.0     0.596928      0.171029      0.450596     Biso  1.000000 S
   S125       1.0     0.579866      0.200582      0.484599     Biso  1.000000 S
   S126       1.0     0.579866      0.200582      0.450596     Biso  1.000000 S
   Mo49       1.0     0.562803      0.190731      0.467597     Biso  1.000000 Mo
   S127       1.0     0.562803      0.230134      0.484599     Biso  1.000000 S
   S128       1.0     0.562803      0.230134      0.450596     Biso  1.000000 S
   Mo50       1.0     0.545741      0.220284      0.467597     Biso  1.000000 Mo
   S129       1.0     0.545741      0.259687      0.484599     Biso  1.000000 S
   S130       1.0     0.545741      0.259687      0.450596     Biso  1.000000 S
   Mo51       1.0     0.528679      0.249836      0.467597     Biso  1.000000 Mo
   S131       1.0     0.528679      0.289240      0.484599     Biso  1.000000 S
   S132       1.0     0.528679      0.289240      0.450596     Biso  1.000000 S
   Mo52       1.0     0.511616      0.279389      0.467597     Biso  1.000000 Mo
   S133       1.0     0.511616      0.318793      0.484599     Biso  1.000000 S
   S134       1.0     0.511616      0.318793      0.450596     Biso  1.000000 S
   Mo53       1.0     0.494554      0.308942      0.467597     Biso  1.000000 Mo
   S135       1.0     0.494554      0.348346      0.484599     Biso  1.000000 S
   S136       1.0     0.494554      0.348346      0.450596     Biso  1.000000 S
   Mo54       1.0     0.477492      0.338495      0.467597     Biso  1.000000 Mo
   S137       1.0     0.477492      0.377899      0.484599     Biso  1.000000 S
   S138       1.0     0.477492      0.377899      0.450596     Biso  1.000000 S
   Mo55       1.0     0.460429      0.368048      0.467597     Biso  1.000000 Mo
   S139       1.0     0.460429      0.407452      0.484599     Biso  1.000000 S
   S140       1.0     0.460429      0.407452      0.450596     Biso  1.000000 S
   Mo56       1.0     0.443367      0.397601      0.467597     Biso  1.000000 Mo
   S141       1.0     0.443367      0.437005      0.484599     Biso  1.000000 S
   S142       1.0     0.443367      0.437005      0.450596     Biso  1.000000 S
   Mo57       1.0     0.426304      0.427154      0.467597     Biso  1.000000 Mo
   S143       1.0     0.426304      0.466558      0.484599     Biso  1.000000 S
   S144       1.0     0.426304      0.466558      0.450596     Biso  1.000000 S
   Mo58       1.0     0.409242      0.456707      0.467597     Biso  1.000000 Mo
   S145       1.0     0.409242      0.496110      0.484599     Biso  1.000000 S
   S146       1.0     0.409242      0.496110      0.450596     Biso  1.000000 S
   Mo59       1.0     0.392180      0.486260      0.467597     Biso  1.000000 Mo
   S147       1.0     0.392180      0.525663      0.484599     Biso  1.000000 S
   S148       1.0     0.392180      0.525663      0.450596     Biso  1.000000 S
   Mo60       1.0     0.375117      0.515812      0.467597     Biso  1.000000 Mo
   S149       1.0     0.375117      0.555216      0.484599     Biso  1.000000 S
   S150       1.0     0.375117      0.555216      0.450596     Biso  1.000000 S
   Mo61       1.0     0.358055      0.545365      0.467597     Biso  1.000000 Mo
   S151       1.0     0.358055      0.584769      0.484599     Biso  1.000000 S
   S152       1.0     0.358055      0.584769      0.450596     Biso  1.000000 S
   Mo62       1.0     0.340993      0.574918      0.467597     Biso  1.000000 Mo
   S153       1.0     0.340993      0.614322      0.484599     Biso  1.000000 S
   S154       1.0     0.340993      0.614322      0.450596     Biso  1.000000 S
   Mo63       1.0     0.323930      0.604471      0.467597     Biso  1.000000 Mo
   S155       1.0     0.323930      0.643875      0.484599     Biso  1.000000 S
   S156       1.0     0.323930      0.643875      0.450596     Biso  1.000000 S
   Mo64       1.0     0.306868      0.634024      0.467597     Biso  1.000000 Mo
   S157       1.0     0.306868      0.673428      0.484599     Biso  1.000000 S
   S158       1.0     0.306868      0.673428      0.450596     Biso  1.000000 S
   Mo65       1.0     0.289805      0.663577      0.467597     Biso  1.000000 Mo
   S159       1.0     0.289805      0.702981      0.484599     Biso  1.000000 S
   S160       1.0     0.289805      0.702981      0.450596     Biso  1.000000 S
   Mo66       1.0     0.272743      0.693130      0.467597     Biso  1.000000 Mo
   S161       1.0     0.272743      0.732534      0.484599     Biso  1.000000 S
   S162       1.0     0.272743      0.732534      0.450596     Biso  1.000000 S
   Mo67       1.0     0.255681      0.722683      0.467597     Biso  1.000000 Mo
   S163       1.0     0.255681      0.762087      0.484599     Biso  1.000000 S
   S164       1.0     0.255681      0.762087      0.450596     Biso  1.000000 S
   S165       1.0     0.631053      0.171029      0.484599     Biso  1.000000 S
   S166       1.0     0.631053      0.171029      0.450596     Biso  1.000000 S
   Mo68       1.0     0.613990      0.161178      0.467597     Biso  1.000000 Mo
   S167       1.0     0.613990      0.200582      0.484599     Biso  1.000000 S
   S168       1.0     0.613990      0.200582      0.450596     Biso  1.000000 S
   Mo69       1.0     0.596928      0.190731      0.467597     Biso  1.000000 Mo
   S169       1.0     0.596928      0.230134      0.484599     Biso  1.000000 S
   S170       1.0     0.596928      0.230134      0.450596     Biso  1.000000 S
   Mo70       1.0     0.579866      0.220284      0.467597     Biso  1.000000 Mo
   S171       1.0     0.579866      0.259687      0.484599     Biso  1.000000 S
   S172       1.0     0.579866      0.259687      0.450596     Biso  1.000000 S
   Mo71       1.0     0.562803      0.249836      0.467597     Biso  1.000000 Mo
   S173       1.0     0.562803      0.289240      0.484599     Biso  1.000000 S
   S174       1.0     0.562803      0.289240      0.450596     Biso  1.000000 S
   Mo72       1.0     0.545741      0.279389      0.467597     Biso  1.000000 Mo
   S175       1.0     0.545741      0.318793      0.484599     Biso  1.000000 S
   S176       1.0     0.545741      0.318793      0.450596     Biso  1.000000 S
   Mo73       1.0     0.528679      0.308942      0.467597     Biso  1.000000 Mo
   S177       1.0     0.528679      0.348346      0.484599     Biso  1.000000 S
   S178       1.0     0.528679      0.348346      0.450596     Biso  1.000000 S
   Mo74       1.0     0.511616      0.338495      0.467597     Biso  1.000000 Mo
   S179       1.0     0.511616      0.377899      0.484599     Biso  1.000000 S
   S180       1.0     0.511616      0.377899      0.450596     Biso  1.000000 S
   Mo75       1.0     0.494554      0.368048      0.467597     Biso  1.000000 Mo
   S181       1.0     0.494554      0.407452      0.484599     Biso  1.000000 S
   S182       1.0     0.494554      0.407452      0.450596     Biso  1.000000 S
   Mo76       1.0     0.477492      0.397601      0.467597     Biso  1.000000 Mo
   S183       1.0     0.477492      0.437005      0.484599     Biso  1.000000 S
   S184       1.0     0.477492      0.437005      0.450596     Biso  1.000000 S
   Mo77       1.0     0.460429      0.427154      0.467597     Biso  1.000000 Mo
   S185       1.0     0.460429      0.466558      0.484599     Biso  1.000000 S
   S186       1.0     0.460429      0.466558      0.450596     Biso  1.000000 S
   Mo78       1.0     0.443367      0.456707      0.467597     Biso  1.000000 Mo
   S187       1.0     0.443367      0.496110      0.484599     Biso  1.000000 S
   S188       1.0     0.443367      0.496110      0.450596     Biso  1.000000 S
   Mo79       1.0     0.426304      0.486260      0.467597     Biso  1.000000 Mo
   S189       1.0     0.426304      0.525663      0.484599     Biso  1.000000 S
   S190       1.0     0.426304      0.525663      0.450596     Biso  1.000000 S
   Mo80       1.0     0.409242      0.515812      0.467597     Biso  1.000000 Mo
   S191       1.0     0.409242      0.555216      0.484599     Biso  1.000000 S
   S192       1.0     0.409242      0.555216      0.450596     Biso  1.000000 S
   Mo81       1.0     0.392180      0.545365      0.467597     Biso  1.000000 Mo
   S193       1.0     0.392180      0.584769      0.484599     Biso  1.000000 S
   S194       1.0     0.392180      0.584769      0.450596     Biso  1.000000 S
   Mo82       1.0     0.375117      0.574918      0.467597     Biso  1.000000 Mo
   S195       1.0     0.375117      0.614322      0.484599     Biso  1.000000 S
   S196       1.0     0.375117      0.614322      0.450596     Biso  1.000000 S
   Mo83       1.0     0.358055      0.604471      0.467597     Biso  1.000000 Mo
   S197       1.0     0.358055      0.643875      0.484599     Biso  1.000000 S
   S198       1.0     0.358055      0.643875      0.450596     Biso  1.000000 S
   Mo84       1.0     0.340993      0.634024      0.467597     Biso  1.000000 Mo
   S199       1.0     0.340993      0.673428      0.484599     Biso  1.000000 S
   S200       1.0     0.340993      0.673428      0.450596     Biso  1.000000 S
   Mo85       1.0     0.323930      0.663577      0.467597     Biso  1.000000 Mo
   S201       1.0     0.323930      0.702981      0.484599     Biso  1.000000 S
   S202       1.0     0.323930      0.702981      0.450596     Biso  1.000000 S
   Mo86       1.0     0.306868      0.693130      0.467597     Biso  1.000000 Mo
   S203       1.0     0.306868      0.732534      0.484599     Biso  1.000000 S
   S204       1.0     0.306868      0.732534      0.450596     Biso  1.000000 S
   Mo87       1.0     0.289805      0.722683      0.467597     Biso  1.000000 Mo
   S205       1.0     0.289805      0.762087      0.484599     Biso  1.000000 S
   S206       1.0     0.289805      0.762087      0.450596     Biso  1.000000 S
   Mo88       1.0     0.272743      0.752236      0.467597     Biso  1.000000 Mo
   S207       1.0     0.272743      0.791639      0.484599     Biso  1.000000 S
   S208       1.0     0.272743      0.791639      0.450596     Biso  1.000000 S
   Mo89       1.0     0.255681      0.781788      0.467597     Biso  1.000000 Mo
   S209       1.0     0.255681      0.821192      0.484599     Biso  1.000000 S
   S210       1.0     0.255681      0.821192      0.450596     Biso  1.000000 S
   S211       1.0     0.682240      0.141476      0.484599     Biso  1.000000 S
   S212       1.0     0.682240      0.141476      0.450596     Biso  1.000000 S
   S213       1.0     0.665178      0.171029      0.484599     Biso  1.000000 S
   S214       1.0     0.665178      0.171029      0.450596     Biso  1.000000 S
   Mo90       1.0     0.648115      0.161178      0.467597     Biso  1.000000 Mo
   S215       1.0     0.648115      0.200582      0.484599     Biso  1.000000 S
   S216       1.0     0.648115      0.200582      0.450596     Biso  1.000000 S
   Mo91       1.0     0.631053      0.190731      0.467597     Biso  1.000000 Mo
   S217       1.0     0.631053      0.230134      0.484599     Biso  1.000000 S
   S218       1.0     0.631053      0.230134      0.450596     Biso  1.000000 S
   Mo92       1.0     0.613990      0.220284      0.467597     Biso  1.000000 Mo
   S219       1.0     0.613990      0.259687      0.484599     Biso  1.000000 S
   S220       1.0     0.613990      0.259687      0.450596     Biso  1.000000 S
   Mo93       1.0     0.596928      0.249836      0.467597     Biso  1.000000 Mo
   S221       1.0     0.596928      0.289240      0.484599     Biso  1.000000 S
   S222       1.0     0.596928      0.289240      0.450596     Biso  1.000000 S
   Mo94       1.0     0.579866      0.279389      0.467597     Biso  1.000000 Mo
   S223       1.0     0.579866      0.318793      0.484599     Biso  1.000000 S
   S224       1.0     0.579866      0.318793      0.450596     Biso  1.000000 S
   Mo95       1.0     0.562803      0.308942      0.467597     Biso  1.000000 Mo
   S225       1.0     0.562803      0.348346      0.484599     Biso  1.000000 S
   S226       1.0     0.562803      0.348346      0.450596     Biso  1.000000 S
   Mo96       1.0     0.545741      0.338495      0.467597     Biso  1.000000 Mo
   S227       1.0     0.545741      0.377899      0.484599     Biso  1.000000 S
   S228       1.0     0.545741      0.377899      0.450596     Biso  1.000000 S
   Mo97       1.0     0.528679      0.368048      0.467597     Biso  1.000000 Mo
   S229       1.0     0.528679      0.407452      0.484599     Biso  1.000000 S
   S230       1.0     0.528679      0.407452      0.450596     Biso  1.000000 S
   Mo98       1.0     0.511616      0.397601      0.467597     Biso  1.000000 Mo
   S231       1.0     0.511616      0.437005      0.484599     Biso  1.000000 S
   S232       1.0     0.511616      0.437005      0.450596     Biso  1.000000 S
   Mo99       1.0     0.494554      0.427154      0.467597     Biso  1.000000 Mo
   S233       1.0     0.494554      0.466558      0.484599     Biso  1.000000 S
   S234       1.0     0.494554      0.466558      0.450596     Biso  1.000000 S
   Mo100      1.0     0.477492      0.456707      0.467597     Biso  1.000000 Mo
   S235       1.0     0.477492      0.496110      0.484599     Biso  1.000000 S
   S236       1.0     0.477492      0.496110      0.450596     Biso  1.000000 S
   Mo101      1.0     0.460429      0.486260      0.467597     Biso  1.000000 Mo
   S237       1.0     0.460429      0.525663      0.484599     Biso  1.000000 S
   S238       1.0     0.460429      0.525663      0.450596     Biso  1.000000 S
   Mo102      1.0     0.443367      0.515812      0.467597     Biso  1.000000 Mo
   S239       1.0     0.443367      0.555216      0.484599     Biso  1.000000 S
   S240       1.0     0.443367      0.555216      0.450596     Biso  1.000000 S
   Mo103      1.0     0.426304      0.545365      0.467597     Biso  1.000000 Mo
   S241       1.0     0.426304      0.584769      0.484599     Biso  1.000000 S
   S242       1.0     0.426304      0.584769      0.450596     Biso  1.000000 S
   Mo104      1.0     0.409242      0.574918      0.467597     Biso  1.000000 Mo
   S243       1.0     0.409242      0.614322      0.484599     Biso  1.000000 S
   S244       1.0     0.409242      0.614322      0.450596     Biso  1.000000 S
   Mo105      1.0     0.392180      0.604471      0.467597     Biso  1.000000 Mo
   S245       1.0     0.392180      0.643875      0.484599     Biso  1.000000 S
   S246       1.0     0.392180      0.643875      0.450596     Biso  1.000000 S
   Mo106      1.0     0.375117      0.634024      0.467597     Biso  1.000000 Mo
   S247       1.0     0.375117      0.673428      0.484599     Biso  1.000000 S
   S248       1.0     0.375117      0.673428      0.450596     Biso  1.000000 S
   Mo107      1.0     0.358055      0.663577      0.467597     Biso  1.000000 Mo
   S249       1.0     0.358055      0.702981      0.484599     Biso  1.000000 S
   S250       1.0     0.358055      0.702981      0.450596     Biso  1.000000 S
   Mo108      1.0     0.340993      0.693130      0.467597     Biso  1.000000 Mo
   S251       1.0     0.340993      0.732534      0.484599     Biso  1.000000 S
   S252       1.0     0.340993      0.732534      0.450596     Biso  1.000000 S
   Mo109      1.0     0.323930      0.722683      0.467597     Biso  1.000000 Mo
   S253       1.0     0.323930      0.762087      0.484599     Biso  1.000000 S
   S254       1.0     0.323930      0.762087      0.450596     Biso  1.000000 S
   Mo110      1.0     0.306868      0.752236      0.467597     Biso  1.000000 Mo
   S255       1.0     0.306868      0.791639      0.484599     Biso  1.000000 S
   S256       1.0     0.306868      0.791639      0.450596     Biso  1.000000 S
   Mo111      1.0     0.289805      0.781788      0.467597     Biso  1.000000 Mo
   S257       1.0     0.289805      0.821192      0.484599     Biso  1.000000 S
   S258       1.0     0.289805      0.821192      0.450596     Biso  1.000000 S
   Mo112      1.0     0.272743      0.811341      0.467597     Biso  1.000000 Mo
   S259       1.0     0.272743      0.850745      0.484599     Biso  1.000000 S
   S260       1.0     0.272743      0.850745      0.450596     Biso  1.000000 S
   Mo113      1.0     0.255681      0.840894      0.467597     Biso  1.000000 Mo
   S261       1.0     0.255681      0.880298      0.484599     Biso  1.000000 S
   S262       1.0     0.255681      0.880298      0.450596     Biso  1.000000 S
   S263       1.0     0.733427      0.111923      0.484599     Biso  1.000000 S
   S264       1.0     0.733427      0.111923      0.450596     Biso  1.000000 S
   S265       1.0     0.716365      0.141476      0.484599     Biso  1.000000 S
   S266       1.0     0.716365      0.141476      0.450596     Biso  1.000000 S
   Mo114      1.0     0.699302      0.131625      0.467597     Biso  1.000000 Mo
   S267       1.0     0.699302      0.171029      0.484599     Biso  1.000000 S
   S268       1.0     0.699302      0.171029      0.450596     Biso  1.000000 S
   Mo115      1.0     0.682240      0.161178      0.467597     Biso  1.000000 Mo
   S269       1.0     0.682240      0.200582      0.484599     Biso  1.000000 S
   S270       1.0     0.682240      0.200582      0.450596     Biso  1.000000 S
   Mo116      1.0     0.665178      0.190731      0.467597     Biso  1.000000 Mo
   S271       1.0     0.665178      0.230134      0.484599     Biso  1.000000 S
   S272       1.0     0.665178      0.230134      0.450596     Biso  1.000000 S
   Mo117      1.0     0.648115      0.220284      0.467597     Biso  1.000000 Mo
   S273       1.0     0.648115      0.259687      0.484599     Biso  1.000000 S
   S274       1.0     0.648115      0.259687      0.450596     Biso  1.000000 S
   Mo118      1.0     0.631053      0.249836      0.467597     Biso  1.000000 Mo
   S275       1.0     0.631053      0.289240      0.484599     Biso  1.000000 S
   S276       1.0     0.631053      0.289240      0.450596     Biso  1.000000 S
   Mo119      1.0     0.613990      0.279389      0.467597     Biso  1.000000 Mo
   S277       1.0     0.613990      0.318793      0.484599     Biso  1.000000 S
   S278       1.0     0.613990      0.318793      0.450596     Biso  1.000000 S
   Mo120      1.0     0.596928      0.308942      0.467597     Biso  1.000000 Mo
   S279       1.0     0.596928      0.348346      0.484599     Biso  1.000000 S
   S280       1.0     0.596928      0.348346      0.450596     Biso  1.000000 S
   Mo121      1.0     0.579866      0.338495      0.467597     Biso  1.000000 Mo
   S281       1.0     0.579866      0.377899      0.484599     Biso  1.000000 S
   S282       1.0     0.579866      0.377899      0.450596     Biso  1.000000 S
   Mo122      1.0     0.562803      0.368048      0.467597     Biso  1.000000 Mo
   S283       1.0     0.562803      0.407452      0.484599     Biso  1.000000 S
   S284       1.0     0.562803      0.407452      0.450596     Biso  1.000000 S
   Mo123      1.0     0.545741      0.397601      0.467597     Biso  1.000000 Mo
   S285       1.0     0.545741      0.437005      0.484599     Biso  1.000000 S
   S286       1.0     0.545741      0.437005      0.450596     Biso  1.000000 S
   Mo124      1.0     0.528679      0.427154      0.467597     Biso  1.000000 Mo
   S287       1.0     0.528679      0.466558      0.484599     Biso  1.000000 S
   S288       1.0     0.528679      0.466558      0.450596     Biso  1.000000 S
   Mo125      1.0     0.511616      0.456707      0.467597     Biso  1.000000 Mo
   S289       1.0     0.511616      0.496110      0.484599     Biso  1.000000 S
   S290       1.0     0.511616      0.496110      0.450596     Biso  1.000000 S
   Mo126      1.0     0.494554      0.486260      0.467597     Biso  1.000000 Mo
   S291       1.0     0.494554      0.525663      0.484599     Biso  1.000000 S
   S292       1.0     0.494554      0.525663      0.450596     Biso  1.000000 S
   Mo127      1.0     0.477492      0.515812      0.467597     Biso  1.000000 Mo
   S293       1.0     0.477492      0.555216      0.484599     Biso  1.000000 S
   S294       1.0     0.477492      0.555216      0.450596     Biso  1.000000 S
   Mo128      1.0     0.460429      0.545365      0.467597     Biso  1.000000 Mo
   S295       1.0     0.460429      0.584769      0.484599     Biso  1.000000 S
   S296       1.0     0.460429      0.584769      0.450596     Biso  1.000000 S
   Mo129      1.0     0.443367      0.574918      0.467597     Biso  1.000000 Mo
   S297       1.0     0.443367      0.614322      0.484599     Biso  1.000000 S
   S298       1.0     0.443367      0.614322      0.450596     Biso  1.000000 S
   Mo130      1.0     0.426304      0.604471      0.467597     Biso  1.000000 Mo
   S299       1.0     0.426304      0.643875      0.484599     Biso  1.000000 S
   S300       1.0     0.426304      0.643875      0.450596     Biso  1.000000 S
   Mo131      1.0     0.409242      0.634024      0.467597     Biso  1.000000 Mo
   S301       1.0     0.409242      0.673428      0.484599     Biso  1.000000 S
   S302       1.0     0.409242      0.673428      0.450596     Biso  1.000000 S
   Mo132      1.0     0.392180      0.663577      0.467597     Biso  1.000000 Mo
   S303       1.0     0.392180      0.702981      0.484599     Biso  1.000000 S
   S304       1.0     0.392180      0.702981      0.450596     Biso  1.000000 S
   Mo133      1.0     0.375117      0.693130      0.467597     Biso  1.000000 Mo
   S305       1.0     0.375117      0.732534      0.484599     Biso  1.000000 S
   S306       1.0     0.375117      0.732534      0.450596     Biso  1.000000 S
   Mo134      1.0     0.358055      0.722683      0.467597     Biso  1.000000 Mo
   S307       1.0     0.358055      0.762087      0.484599     Biso  1.000000 S
   S308       1.0     0.358055      0.762087      0.450596     Biso  1.000000 S
   Mo135      1.0     0.340993      0.752236      0.467597     Biso  1.000000 Mo
   S309       1.0     0.340993      0.791639      0.484599     Biso  1.000000 S
   S310       1.0     0.340993      0.791639      0.450596     Biso  1.000000 S
   Mo136      1.0     0.323930      0.781788      0.467597     Biso  1.000000 Mo
   S311       1.0     0.323930      0.821192      0.484599     Biso  1.000000 S
   S312       1.0     0.323930      0.821192      0.450596     Biso  1.000000 S
   Mo137      1.0     0.306868      0.811341      0.467597     Biso  1.000000 Mo
   S313       1.0     0.306868      0.850745      0.484599     Biso  1.000000 S
   S314       1.0     0.306868      0.850745      0.450596     Biso  1.000000 S
   Mo138      1.0     0.289805      0.840894      0.467597     Biso  1.000000 Mo
   S315       1.0     0.289805      0.880298      0.484599     Biso  1.000000 S
   S316       1.0     0.289805      0.880298      0.450596     Biso  1.000000 S
   Mo139      1.0     0.272743      0.870447      0.467597     Biso  1.000000 Mo
   Mo140      1.0     0.255681      0.900000      0.467597     Biso  1.000000 Mo
   Mo141      1.0     0.750489      0.102072      0.467597     Biso  1.000000 Mo
   S317       1.0     0.750489      0.141476      0.484599     Biso  1.000000 S
   S318       1.0     0.750489      0.141476      0.450596     Biso  1.000000 S
   Mo142      1.0     0.733427      0.131625      0.467597     Biso  1.000000 Mo
   S319       1.0     0.733427      0.171029      0.484599     Biso  1.000000 S
   S320       1.0     0.733427      0.171029      0.450596     Biso  1.000000 S
   Mo143      1.0     0.716365      0.161178      0.467597     Biso  1.000000 Mo
   S321       1.0     0.716365      0.200582      0.484599     Biso  1.000000 S
   S322       1.0     0.716365      0.200582      0.450596     Biso  1.000000 S
   Mo144      1.0     0.699302      0.190731      0.467597     Biso  1.000000 Mo
   S323       1.0     0.699302      0.230134      0.484599     Biso  1.000000 S
   S324       1.0     0.699302      0.230134      0.450596     Biso  1.000000 S
   Mo145      1.0     0.682240      0.220284      0.467597     Biso  1.000000 Mo
   S325       1.0     0.682240      0.259687      0.484599     Biso  1.000000 S
   S326       1.0     0.682240      0.259687      0.450596     Biso  1.000000 S
   Mo146      1.0     0.665178      0.249836      0.467597     Biso  1.000000 Mo
   S327       1.0     0.665178      0.289240      0.484599     Biso  1.000000 S
   S328       1.0     0.665178      0.289240      0.450596     Biso  1.000000 S
   Mo147      1.0     0.648115      0.279389      0.467597     Biso  1.000000 Mo
   S329       1.0     0.648115      0.318793      0.484599     Biso  1.000000 S
   S330       1.0     0.648115      0.318793      0.450596     Biso  1.000000 S
   Mo148      1.0     0.631053      0.308942      0.467597     Biso  1.000000 Mo
   S331       1.0     0.631053      0.348346      0.484599     Biso  1.000000 S
   S332       1.0     0.631053      0.348346      0.450596     Biso  1.000000 S
   Mo149      1.0     0.613990      0.338495      0.467597     Biso  1.000000 Mo
   S333       1.0     0.613990      0.377899      0.484599     Biso  1.000000 S
   S334       1.0     0.613990      0.377899      0.450596     Biso  1.000000 S
   Mo150      1.0     0.596928      0.368048      0.467597     Biso  1.000000 Mo
   S335       1.0     0.596928      0.407452      0.484599     Biso  1.000000 S
   S336       1.0     0.596928      0.407452      0.450596     Biso  1.000000 S
   Mo151      1.0     0.579866      0.397601      0.467597     Biso  1.000000 Mo
   S337       1.0     0.579866      0.437005      0.484599     Biso  1.000000 S
   S338       1.0     0.579866      0.437005      0.450596     Biso  1.000000 S
   Mo152      1.0     0.562803      0.427154      0.467597     Biso  1.000000 Mo
   S339       1.0     0.562803      0.466558      0.484599     Biso  1.000000 S
   S340       1.0     0.562803      0.466558      0.450596     Biso  1.000000 S
   Mo153      1.0     0.545741      0.456707      0.467597     Biso  1.000000 Mo
   S341       1.0     0.545741      0.496110      0.484599     Biso  1.000000 S
   S342       1.0     0.545741      0.496110      0.450596     Biso  1.000000 S
   Mo154      1.0     0.528679      0.486260      0.467597     Biso  1.000000 Mo
   S343       1.0     0.528679      0.525663      0.484599     Biso  1.000000 S
   S344       1.0     0.528679      0.525663      0.450596     Biso  1.000000 S
   Mo155      1.0     0.511616      0.515812      0.467597     Biso  1.000000 Mo
   S345       1.0     0.511616      0.555216      0.484599     Biso  1.000000 S
   S346       1.0     0.511616      0.555216      0.450596     Biso  1.000000 S
   Mo156      1.0     0.494554      0.545365      0.467597     Biso  1.000000 Mo
   S347       1.0     0.494554      0.584769      0.484599     Biso  1.000000 S
   S348       1.0     0.494554      0.584769      0.450596     Biso  1.000000 S
   Mo157      1.0     0.477492      0.574918      0.467597     Biso  1.000000 Mo
   S349       1.0     0.477492      0.614322      0.484599     Biso  1.000000 S
   S350       1.0     0.477492      0.614322      0.450596     Biso  1.000000 S
   Mo158      1.0     0.460429      0.604471      0.467597     Biso  1.000000 Mo
   S351       1.0     0.460429      0.643875      0.484599     Biso  1.000000 S
   S352       1.0     0.460429      0.643875      0.450596     Biso  1.000000 S
   Mo159      1.0     0.443367      0.634024      0.467597     Biso  1.000000 Mo
   S353       1.0     0.443367      0.673428      0.484599     Biso  1.000000 S
   S354       1.0     0.443367      0.673428      0.450596     Biso  1.000000 S
   Mo160      1.0     0.426304      0.663577      0.467597     Biso  1.000000 Mo
   S355       1.0     0.426304      0.702981      0.484599     Biso  1.000000 S
   S356       1.0     0.426304      0.702981      0.450596     Biso  1.000000 S
   Mo161      1.0     0.409242      0.693130      0.467597     Biso  1.000000 Mo
   S357       1.0     0.409242      0.732534      0.484599     Biso  1.000000 S
   S358       1.0     0.409242      0.732534      0.450596     Biso  1.000000 S
   Mo162      1.0     0.392180      0.722683      0.467597     Biso  1.000000 Mo
   S359       1.0     0.392180      0.762087      0.484599     Biso  1.000000 S
   S360       1.0     0.392180      0.762087      0.450596     Biso  1.000000 S
   Mo163      1.0     0.375117      0.752236      0.467597     Biso  1.000000 Mo
   S361       1.0     0.375117      0.791639      0.484599     Biso  1.000000 S
   S362       1.0     0.375117      0.791639      0.450596     Biso  1.000000 S
   Mo164      1.0     0.358055      0.781788      0.467597     Biso  1.000000 Mo
   S363       1.0     0.358055      0.821192      0.484599     Biso  1.000000 S
   S364       1.0     0.358055      0.821192      0.450596     Biso  1.000000 S
   Mo165      1.0     0.340993      0.811341      0.467597     Biso  1.000000 Mo
   S365       1.0     0.340993      0.850745      0.484599     Biso  1.000000 S
   S366       1.0     0.340993      0.850745      0.450596     Biso  1.000000 S
   Mo166      1.0     0.323930      0.840894      0.467597     Biso  1.000000 Mo
   Mo167      1.0     0.306868      0.870447      0.467597     Biso  1.000000 Mo
   Mo168      1.0     0.750489      0.161178      0.467597     Biso  1.000000 Mo
   S367       1.0     0.750489      0.200582      0.484599     Biso  1.000000 S
   S368       1.0     0.750489      0.200582      0.450596     Biso  1.000000 S
   Mo169      1.0     0.733427      0.190731      0.467597     Biso  1.000000 Mo
   S369       1.0     0.733427      0.230134      0.484599     Biso  1.000000 S
   S370       1.0     0.733427      0.230134      0.450596     Biso  1.000000 S
   Mo170      1.0     0.716365      0.220284      0.467597     Biso  1.000000 Mo
   S371       1.0     0.716365      0.259687      0.484599     Biso  1.000000 S
   S372       1.0     0.716365      0.259687      0.450596     Biso  1.000000 S
   Mo171      1.0     0.699302      0.249836      0.467597     Biso  1.000000 Mo
   S373       1.0     0.699302      0.289240      0.484599     Biso  1.000000 S
   S374       1.0     0.699302      0.289240      0.450596     Biso  1.000000 S
   Mo172      1.0     0.682240      0.279389      0.467597     Biso  1.000000 Mo
   S375       1.0     0.682240      0.318793      0.484599     Biso  1.000000 S
   S376       1.0     0.682240      0.318793      0.450596     Biso  1.000000 S
   Mo173      1.0     0.665178      0.308942      0.467597     Biso  1.000000 Mo
   S377       1.0     0.665178      0.348346      0.484599     Biso  1.000000 S
   S378       1.0     0.665178      0.348346      0.450596     Biso  1.000000 S
   Mo174      1.0     0.648115      0.338495      0.467597     Biso  1.000000 Mo
   S379       1.0     0.648115      0.377899      0.484599     Biso  1.000000 S
   S380       1.0     0.648115      0.377899      0.450596     Biso  1.000000 S
   Mo175      1.0     0.631053      0.368048      0.467597     Biso  1.000000 Mo
   S381       1.0     0.631053      0.407452      0.484599     Biso  1.000000 S
   S382       1.0     0.631053      0.407452      0.450596     Biso  1.000000 S
   Mo176      1.0     0.613990      0.397601      0.467597     Biso  1.000000 Mo
   S383       1.0     0.613990      0.437005      0.484599     Biso  1.000000 S
   S384       1.0     0.613990      0.437005      0.450596     Biso  1.000000 S
   Mo177      1.0     0.596928      0.427154      0.467597     Biso  1.000000 Mo
   S385       1.0     0.596928      0.466558      0.484599     Biso  1.000000 S
   S386       1.0     0.596928      0.466558      0.450596     Biso  1.000000 S
   Mo178      1.0     0.579866      0.456707      0.467597     Biso  1.000000 Mo
   S387       1.0     0.579866      0.496110      0.484599     Biso  1.000000 S
   S388       1.0     0.579866      0.496110      0.450596     Biso  1.000000 S
   Mo179      1.0     0.562803      0.486260      0.467597     Biso  1.000000 Mo
   S389       1.0     0.562803      0.525663      0.484599     Biso  1.000000 S
   S390       1.0     0.562803      0.525663      0.450596     Biso  1.000000 S
   Mo180      1.0     0.545741      0.515812      0.467597     Biso  1.000000 Mo
   S391       1.0     0.545741      0.555216      0.484599     Biso  1.000000 S
   S392       1.0     0.545741      0.555216      0.450596     Biso  1.000000 S
   Mo181      1.0     0.528679      0.545365      0.467597     Biso  1.000000 Mo
   S393       1.0     0.528679      0.584769      0.484599     Biso  1.000000 S
   S394       1.0     0.528679      0.584769      0.450596     Biso  1.000000 S
   Mo182      1.0     0.511616      0.574918      0.467597     Biso  1.000000 Mo
   S395       1.0     0.511616      0.614322      0.484599     Biso  1.000000 S
   S396       1.0     0.511616      0.614322      0.450596     Biso  1.000000 S
   Mo183      1.0     0.494554      0.604471      0.467597     Biso  1.000000 Mo
   S397       1.0     0.494554      0.643875      0.484599     Biso  1.000000 S
   S398       1.0     0.494554      0.643875      0.450596     Biso  1.000000 S
   Mo184      1.0     0.477492      0.634024      0.467597     Biso  1.000000 Mo
   S399       1.0     0.477492      0.673428      0.484599     Biso  1.000000 S
   S400       1.0     0.477492      0.673428      0.450596     Biso  1.000000 S
   Mo185      1.0     0.460429      0.663577      0.467597     Biso  1.000000 Mo
   S401       1.0     0.460429      0.702981      0.484599     Biso  1.000000 S
   S402       1.0     0.460429      0.702981      0.450596     Biso  1.000000 S
   Mo186      1.0     0.443367      0.693130      0.467597     Biso  1.000000 Mo
   S403       1.0     0.443367      0.732534      0.484599     Biso  1.000000 S
   S404       1.0     0.443367      0.732534      0.450596     Biso  1.000000 S
   Mo187      1.0     0.426304      0.722683      0.467597     Biso  1.000000 Mo
   S405       1.0     0.426304      0.762087      0.484599     Biso  1.000000 S
   S406       1.0     0.426304      0.762087      0.450596     Biso  1.000000 S
   Mo188      1.0     0.409242      0.752236      0.467597     Biso  1.000000 Mo
   S407       1.0     0.409242      0.791639      0.484599     Biso  1.000000 S
   S408       1.0     0.409242      0.791639      0.450596     Biso  1.000000 S
   Mo189      1.0     0.392180      0.781788      0.467597     Biso  1.000000 Mo
   S409       1.0     0.392180      0.821192      0.484599     Biso  1.000000 S
   S410       1.0     0.392180      0.821192      0.450596     Biso  1.000000 S
   Mo190      1.0     0.375117      0.811341      0.467597     Biso  1.000000 Mo
   Mo191      1.0     0.358055      0.840894      0.467597     Biso  1.000000 Mo
   Mo192      1.0     0.750489      0.220284      0.467597     Biso  1.000000 Mo
   Mo193      1.0     0.733427      0.249836      0.467597     Biso  1.000000 Mo
   S411       1.0     0.733427      0.289240      0.484599     Biso  1.000000 S
   S412       1.0     0.733427      0.289240      0.450596     Biso  1.000000 S
   Mo194      1.0     0.716365      0.279389      0.467597     Biso  1.000000 Mo
   S413       1.0     0.716365      0.318793      0.484599     Biso  1.000000 S
   S414       1.0     0.716365      0.318793      0.450596     Biso  1.000000 S
   Mo195      1.0     0.699302      0.308942      0.467597     Biso  1.000000 Mo
   S415       1.0     0.699302      0.348346      0.484599     Biso  1.000000 S
   S416       1.0     0.699302      0.348346      0.450596     Biso  1.000000 S
   Mo196      1.0     0.682240      0.338495      0.467597     Biso  1.000000 Mo
   S417       1.0     0.682240      0.377899      0.484599     Biso  1.000000 S
   S418       1.0     0.682240      0.377899      0.450596     Biso  1.000000 S
   Mo197      1.0     0.665178      0.368048      0.467597     Biso  1.000000 Mo
   S419       1.0     0.665178      0.407452      0.484599     Biso  1.000000 S
   S420       1.0     0.665178      0.407452      0.450596     Biso  1.000000 S
   Mo198      1.0     0.648115      0.397601      0.467597     Biso  1.000000 Mo
   S421       1.0     0.648115      0.437005      0.484599     Biso  1.000000 S
   S422       1.0     0.648115      0.437005      0.450596     Biso  1.000000 S
   Mo199      1.0     0.631053      0.427154      0.467597     Biso  1.000000 Mo
   S423       1.0     0.631053      0.466558      0.484599     Biso  1.000000 S
   S424       1.0     0.631053      0.466558      0.450596     Biso  1.000000 S
   Mo200      1.0     0.613990      0.456707      0.467597     Biso  1.000000 Mo
   S425       1.0     0.613990      0.496110      0.484599     Biso  1.000000 S
   S426       1.0     0.613990      0.496110      0.450596     Biso  1.000000 S
   Mo201      1.0     0.596928      0.486260      0.467597     Biso  1.000000 Mo
   S427       1.0     0.596928      0.525663      0.484599     Biso  1.000000 S
   S428       1.0     0.596928      0.525663      0.450596     Biso  1.000000 S
   Mo202      1.0     0.579866      0.515812      0.467597     Biso  1.000000 Mo
   S429       1.0     0.579866      0.555216      0.484599     Biso  1.000000 S
   S430       1.0     0.579866      0.555216      0.450596     Biso  1.000000 S
   Mo203      1.0     0.562803      0.545365      0.467597     Biso  1.000000 Mo
   S431       1.0     0.562803      0.584769      0.484599     Biso  1.000000 S
   S432       1.0     0.562803      0.584769      0.450596     Biso  1.000000 S
   Mo204      1.0     0.545741      0.574918      0.467597     Biso  1.000000 Mo
   S433       1.0     0.545741      0.614322      0.484599     Biso  1.000000 S
   S434       1.0     0.545741      0.614322      0.450596     Biso  1.000000 S
   Mo205      1.0     0.528679      0.604471      0.467597     Biso  1.000000 Mo
   S435       1.0     0.528679      0.643875      0.484599     Biso  1.000000 S
   S436       1.0     0.528679      0.643875      0.450596     Biso  1.000000 S
   Mo206      1.0     0.511616      0.634024      0.467597     Biso  1.000000 Mo
   S437       1.0     0.511616      0.673428      0.484599     Biso  1.000000 S
   S438       1.0     0.511616      0.673428      0.450596     Biso  1.000000 S
   Mo207      1.0     0.494554      0.663577      0.467597     Biso  1.000000 Mo
   S439       1.0     0.494554      0.702981      0.484599     Biso  1.000000 S
   S440       1.0     0.494554      0.702981      0.450596     Biso  1.000000 S
   Mo208      1.0     0.477492      0.693130      0.467597     Biso  1.000000 Mo
   S441       1.0     0.477492      0.732534      0.484599     Biso  1.000000 S
   S442       1.0     0.477492      0.732534      0.450596     Biso  1.000000 S
   Mo209      1.0     0.460429      0.722683      0.467597     Biso  1.000000 Mo
   S443       1.0     0.460429      0.762087      0.484599     Biso  1.000000 S
   S444       1.0     0.460429      0.762087      0.450596     Biso  1.000000 S
   Mo210      1.0     0.443367      0.752236      0.467597     Biso  1.000000 Mo
   S445       1.0     0.443367      0.791639      0.484599     Biso  1.000000 S
   S446       1.0     0.443367      0.791639      0.450596     Biso  1.000000 S
   Mo211      1.0     0.426304      0.781788      0.467597     Biso  1.000000 Mo
   Mo212      1.0     0.409242      0.811341      0.467597     Biso  1.000000 Mo
   Mo213      1.0     0.733427      0.308942      0.467597     Biso  1.000000 Mo
   S447       1.0     0.733427      0.348346      0.484599     Biso  1.000000 S
   S448       1.0     0.733427      0.348346      0.450596     Biso  1.000000 S
   Mo214      1.0     0.716365      0.338495      0.467597     Biso  1.000000 Mo
   S449       1.0     0.716365      0.377899      0.484599     Biso  1.000000 S
   S450       1.0     0.716365      0.377899      0.450596     Biso  1.000000 S
   Mo215      1.0     0.699302      0.368048      0.467597     Biso  1.000000 Mo
   S451       1.0     0.699302      0.407452      0.484599     Biso  1.000000 S
   S452       1.0     0.699302      0.407452      0.450596     Biso  1.000000 S
   Mo216      1.0     0.682240      0.397601      0.467597     Biso  1.000000 Mo
   S453       1.0     0.682240      0.437005      0.484599     Biso  1.000000 S
   S454       1.0     0.682240      0.437005      0.450596     Biso  1.000000 S
   Mo217      1.0     0.665178      0.427154      0.467597     Biso  1.000000 Mo
   S455       1.0     0.665178      0.466558      0.484599     Biso  1.000000 S
   S456       1.0     0.665178      0.466558      0.450596     Biso  1.000000 S
   Mo218      1.0     0.648115      0.456707      0.467597     Biso  1.000000 Mo
   S457       1.0     0.648115      0.496110      0.484599     Biso  1.000000 S
   S458       1.0     0.648115      0.496110      0.450596     Biso  1.000000 S
   Mo219      1.0     0.631053      0.486260      0.467597     Biso  1.000000 Mo
   S459       1.0     0.631053      0.525663      0.484599     Biso  1.000000 S
   S460       1.0     0.631053      0.525663      0.450596     Biso  1.000000 S
   Mo220      1.0     0.613990      0.515812      0.467597     Biso  1.000000 Mo
   S461       1.0     0.613990      0.555216      0.484599     Biso  1.000000 S
   S462       1.0     0.613990      0.555216      0.450596     Biso  1.000000 S
   Mo221      1.0     0.596928      0.545365      0.467597     Biso  1.000000 Mo
   S463       1.0     0.596928      0.584769      0.484599     Biso  1.000000 S
   S464       1.0     0.596928      0.584769      0.450596     Biso  1.000000 S
   Mo222      1.0     0.579866      0.574918      0.467597     Biso  1.000000 Mo
   S465       1.0     0.579866      0.614322      0.484599     Biso  1.000000 S
   S466       1.0     0.579866      0.614322      0.450596     Biso  1.000000 S
   Mo223      1.0     0.562803      0.604471      0.467597     Biso  1.000000 Mo
   S467       1.0     0.562803      0.643875      0.484599     Biso  1.000000 S
   S468       1.0     0.562803      0.643875      0.450596     Biso  1.000000 S
   Mo224      1.0     0.545741      0.634024      0.467597     Biso  1.000000 Mo
   S469       1.0     0.545741      0.673428      0.484599     Biso  1.000000 S
   S470       1.0     0.545741      0.673428      0.450596     Biso  1.000000 S
   Mo225      1.0     0.528679      0.663577      0.467597     Biso  1.000000 Mo
   S471       1.0     0.528679      0.702981      0.484599     Biso  1.000000 S
   S472       1.0     0.528679      0.702981      0.450596     Biso  1.000000 S
   Mo226      1.0     0.511616      0.693130      0.467597     Biso  1.000000 Mo
   S473       1.0     0.511616      0.732534      0.484599     Biso  1.000000 S
   S474       1.0     0.511616      0.732534      0.450596     Biso  1.000000 S
   Mo227      1.0     0.494554      0.722683      0.467597     Biso  1.000000 Mo
   S475       1.0     0.494554      0.762087      0.484599     Biso  1.000000 S
   S476       1.0     0.494554      0.762087      0.450596     Biso  1.000000 S
   Mo228      1.0     0.477492      0.752236      0.467597     Biso  1.000000 Mo
   Mo229      1.0     0.460429      0.781788      0.467597     Biso  1.000000 Mo
   Mo230      1.0     0.733427      0.368048      0.467597     Biso  1.000000 Mo
   S477       1.0     0.733427      0.407452      0.484599     Biso  1.000000 S
   S478       1.0     0.733427      0.407452      0.450596     Biso  1.000000 S
   Mo231      1.0     0.716365      0.397601      0.467597     Biso  1.000000 Mo
   S479       1.0     0.716365      0.437005      0.484599     Biso  1.000000 S
   S480       1.0     0.716365      0.437005      0.450596     Biso  1.000000 S
   Mo232      1.0     0.699302      0.427154      0.467597     Biso  1.000000 Mo
   S481       1.0     0.699302      0.466558      0.484599     Biso  1.000000 S
   S482       1.0     0.699302      0.466558      0.450596     Biso  1.000000 S
   Mo233      1.0     0.682240      0.456707      0.467597     Biso  1.000000 Mo
   S483       1.0     0.682240      0.496110      0.484599     Biso  1.000000 S
   S484       1.0     0.682240      0.496110      0.450596     Biso  1.000000 S
   Mo234      1.0     0.665178      0.486260      0.467597     Biso  1.000000 Mo
   S485       1.0     0.665178      0.525663      0.484599     Biso  1.000000 S
   S486       1.0     0.665178      0.525663      0.450596     Biso  1.000000 S
   Mo235      1.0     0.648115      0.515812      0.467597     Biso  1.000000 Mo
   S487       1.0     0.648115      0.555216      0.484599     Biso  1.000000 S
   S488       1.0     0.648115      0.555216      0.450596     Biso  1.000000 S
   Mo236      1.0     0.631053      0.545365      0.467597     Biso  1.000000 Mo
   S489       1.0     0.631053      0.584769      0.484599     Biso  1.000000 S
   S490       1.0     0.631053      0.584769      0.450596     Biso  1.000000 S
   Mo237      1.0     0.613990      0.574918      0.467597     Biso  1.000000 Mo
   S491       1.0     0.613990      0.614322      0.484599     Biso  1.000000 S
   S492       1.0     0.613990      0.614322      0.450596     Biso  1.000000 S
   Mo238      1.0     0.596928      0.604471      0.467597     Biso  1.000000 Mo
   S493       1.0     0.596928      0.643875      0.484599     Biso  1.000000 S
   S494       1.0     0.596928      0.643875      0.450596     Biso  1.000000 S
   Mo239      1.0     0.579866      0.634024      0.467597     Biso  1.000000 Mo
   S495       1.0     0.579866      0.673428      0.484599     Biso  1.000000 S
   S496       1.0     0.579866      0.673428      0.450596     Biso  1.000000 S
   Mo240      1.0     0.562803      0.663577      0.467597     Biso  1.000000 Mo
   S497       1.0     0.562803      0.702981      0.484599     Biso  1.000000 S
   S498       1.0     0.562803      0.702981      0.450596     Biso  1.000000 S
   Mo241      1.0     0.545741      0.693130      0.467597     Biso  1.000000 Mo
   S499       1.0     0.545741      0.732534      0.484599     Biso  1.000000 S
   S500       1.0     0.545741      0.732534      0.450596     Biso  1.000000 S
   Mo242      1.0     0.528679      0.722683      0.467597     Biso  1.000000 Mo
   Mo243      1.0     0.511616      0.752236      0.467597     Biso  1.000000 Mo
   Mo244      1.0     0.733427      0.427154      0.467597     Biso  1.000000 Mo
   S501       1.0     0.733427      0.466558      0.484599     Biso  1.000000 S
   S502       1.0     0.733427      0.466558      0.450596     Biso  1.000000 S
   Mo245      1.0     0.716365      0.456707      0.467597     Biso  1.000000 Mo
   S503       1.0     0.716365      0.496110      0.484599     Biso  1.000000 S
   S504       1.0     0.716365      0.496110      0.450596     Biso  1.000000 S
   Mo246      1.0     0.699302      0.486260      0.467597     Biso  1.000000 Mo
   S505       1.0     0.699302      0.525663      0.484599     Biso  1.000000 S
   S506       1.0     0.699302      0.525663      0.450596     Biso  1.000000 S
   Mo247      1.0     0.682240      0.515812      0.467597     Biso  1.000000 Mo
   S507       1.0     0.682240      0.555216      0.484599     Biso  1.000000 S
   S508       1.0     0.682240      0.555216      0.450596     Biso  1.000000 S
   Mo248      1.0     0.665178      0.545365      0.467597     Biso  1.000000 Mo
   S509       1.0     0.665178      0.584769      0.484599     Biso  1.000000 S
   S510       1.0     0.665178      0.584769      0.450596     Biso  1.000000 S
   Mo249      1.0     0.648115      0.574918      0.467597     Biso  1.000000 Mo
   S511       1.0     0.648115      0.614322      0.484599     Biso  1.000000 S
   S512       1.0     0.648115      0.614322      0.450596     Biso  1.000000 S
   Mo250      1.0     0.631053      0.604471      0.467597     Biso  1.000000 Mo
   S513       1.0     0.631053      0.643875      0.484599     Biso  1.000000 S
   S514       1.0     0.631053      0.643875      0.450596     Biso  1.000000 S
   Mo251      1.0     0.613990      0.634024      0.467597     Biso  1.000000 Mo
   S515       1.0     0.613990      0.673428      0.484599     Biso  1.000000 S
   S516       1.0     0.613990      0.673428      0.450596     Biso  1.000000 S
   Mo252      1.0     0.596928      0.663577      0.467597     Biso  1.000000 Mo
   S517       1.0     0.596928      0.702981      0.484599     Biso  1.000000 S
   S518       1.0     0.596928      0.702981      0.450596     Biso  1.000000 S
   Mo253      1.0     0.579866      0.693130      0.467597     Biso  1.000000 Mo
   Mo254      1.0     0.562803      0.722683      0.467597     Biso  1.000000 Mo
   Mo255      1.0     0.733427      0.486260      0.467597     Biso  1.000000 Mo
   S519       1.0     0.733427      0.525663      0.484599     Biso  1.000000 S
   S520       1.0     0.733427      0.525663      0.450596     Biso  1.000000 S
   Mo256      1.0     0.716365      0.515812      0.467597     Biso  1.000000 Mo
   S521       1.0     0.716365      0.555216      0.484599     Biso  1.000000 S
   S522       1.0     0.716365      0.555216      0.450596     Biso  1.000000 S
   Mo257      1.0     0.699302      0.545365      0.467597     Biso  1.000000 Mo
   S523       1.0     0.699302      0.584769      0.484599     Biso  1.000000 S
   S524       1.0     0.699302      0.584769      0.450596     Biso  1.000000 S
   Mo258      1.0     0.682240      0.574918      0.467597     Biso  1.000000 Mo
   S525       1.0     0.682240      0.614322      0.484599     Biso  1.000000 S
   S526       1.0     0.682240      0.614322      0.450596     Biso  1.000000 S
   Mo259      1.0     0.665178      0.604471      0.467597     Biso  1.000000 Mo
   S527       1.0     0.665178      0.643875      0.484599     Biso  1.000000 S
   S528       1.0     0.665178      0.643875      0.450596     Biso  1.000000 S
   Mo260      1.0     0.648115      0.634024      0.467597     Biso  1.000000 Mo
   S529       1.0     0.648115      0.673428      0.484599     Biso  1.000000 S
   S530       1.0     0.648115      0.673428      0.450596     Biso  1.000000 S
   Mo261      1.0     0.631053      0.663577      0.467597     Biso  1.000000 Mo
   S531       1.0     0.631053      0.702981      0.484599     Biso  1.000000 S
   S532       1.0     0.631053      0.702981      0.450596     Biso  1.000000 S
   Mo262      1.0     0.613990      0.693130      0.467597     Biso  1.000000 Mo
   Mo263      1.0     0.733427      0.545365      0.467597     Biso  1.000000 Mo
   S533       1.0     0.733427      0.584769      0.484599     Biso  1.000000 S
   S534       1.0     0.733427      0.584769      0.450596     Biso  1.000000 S
   Mo264      1.0     0.716365      0.574918      0.467597     Biso  1.000000 Mo
   S535       1.0     0.716365      0.614322      0.484599     Biso  1.000000 S
   S536       1.0     0.716365      0.614322      0.450596     Biso  1.000000 S
   Mo265      1.0     0.699302      0.604471      0.467597     Biso  1.000000 Mo
   S537       1.0     0.699302      0.643875      0.484599     Biso  1.000000 S
   S538       1.0     0.699302      0.643875      0.450596     Biso  1.000000 S
   Mo266      1.0     0.682240      0.634024      0.467597     Biso  1.000000 Mo
   S539       1.0     0.682240      0.673428      0.484599     Biso  1.000000 S
   S540       1.0     0.682240      0.673428      0.450596     Biso  1.000000 S
   Mo267      1.0     0.665178      0.663577      0.467597     Biso  1.000000 Mo
   Mo268      1.0     0.648115      0.693130      0.467597     Biso  1.000000 Mo
   Mo269      1.0     0.733427      0.604471      0.467597     Biso  1.000000 Mo
   S541       1.0     0.733427      0.643875      0.484599     Biso  1.000000 S
   S542       1.0     0.733427      0.643875      0.450596     Biso  1.000000 S
   Mo270      1.0     0.716365      0.634024      0.467597     Biso  1.000000 Mo
   Mo271      1.0     0.699302      0.663577      0.467597     Biso  1.000000 Mo
   S543       1.0     0.291002      0.348382      0.549404     Biso  1.000000 S
   S544       1.0     0.291002      0.348382      0.515401     Biso  1.000000 S
   S545       1.0     0.272176      0.376845      0.549404     Biso  1.000000 S
   S546       1.0     0.272176      0.376845      0.515401     Biso  1.000000 S
   S547       1.0     0.343889      0.321992      0.549404     Biso  1.000000 S
   S548       1.0     0.343889      0.321992      0.515401     Biso  1.000000 S
   S549       1.0     0.325063      0.350454      0.549404     Biso  1.000000 S
   S550       1.0     0.325063      0.350454      0.515401     Biso  1.000000 S
   Mo272      1.0     0.308631      0.339586      0.532403     Biso  1.000000 Mo
   S551       1.0     0.306238      0.378917      0.549404     Biso  1.000000 S
   S552       1.0     0.306238      0.378917      0.515401     Biso  1.000000 S
   Mo273      1.0     0.289805      0.368048      0.532403     Biso  1.000000 Mo
   S553       1.0     0.287413      0.407379      0.549404     Biso  1.000000 S
   S554       1.0     0.287413      0.407379      0.515401     Biso  1.000000 S
   Mo274      1.0     0.270980      0.396510      0.532403     Biso  1.000000 Mo
   S555       1.0     0.268588      0.435842      0.549404     Biso  1.000000 S
   S556       1.0     0.268588      0.435842      0.515401     Biso  1.000000 S
   S557       1.0     0.415601      0.267139      0.549404     Biso  1.000000 S
   S558       1.0     0.415601      0.267139      0.515401     Biso  1.000000 S
   S559       1.0     0.396776      0.295602      0.549404     Biso  1.000000 S
   S560       1.0     0.396776      0.295602      0.515401     Biso  1.000000 S
   S561       1.0     0.377951      0.324064      0.549404     Biso  1.000000 S
   S562       1.0     0.377951      0.324064      0.515401     Biso  1.000000 S
   Mo275      1.0     0.361518      0.313195      0.532403     Biso  1.000000 Mo
   S563       1.0     0.359125      0.352526      0.549404     Biso  1.000000 S
   S564       1.0     0.359125      0.352526      0.515401     Biso  1.000000 S
   Mo276      1.0     0.342692      0.341658      0.532403     Biso  1.000000 Mo
   S565       1.0     0.340300      0.380989      0.549404     Biso  1.000000 S
   S566       1.0     0.340300      0.380989      0.515401     Biso  1.000000 S
   Mo277      1.0     0.323867      0.370120      0.532403     Biso  1.000000 Mo
   S567       1.0     0.321475      0.409451      0.549404     Biso  1.000000 S
   S568       1.0     0.321475      0.409451      0.515401     Biso  1.000000 S
   Mo278      1.0     0.305042      0.398582      0.532403     Biso  1.000000 Mo
   S569       1.0     0.302649      0.437913      0.549404     Biso  1.000000 S
   S570       1.0     0.302649      0.437913      0.515401     Biso  1.000000 S
   Mo279      1.0     0.286217      0.427045      0.532403     Biso  1.000000 Mo
   S571       1.0     0.283824      0.466376      0.549404     Biso  1.000000 S
   S572       1.0     0.283824      0.466376      0.515401     Biso  1.000000 S
   Mo280      1.0     0.267391      0.455507      0.532403     Biso  1.000000 Mo
   S573       1.0     0.264999      0.494838      0.549404     Biso  1.000000 S
   S574       1.0     0.264999      0.494838      0.515401     Biso  1.000000 S
   S575       1.0     0.468488      0.240749      0.549404     Biso  1.000000 S
   S576       1.0     0.468488      0.240749      0.515401     Biso  1.000000 S
   S577       1.0     0.449663      0.269211      0.549404     Biso  1.000000 S
   S578       1.0     0.449663      0.269211      0.515401     Biso  1.000000 S
   Mo281      1.0     0.433230      0.258342      0.532403     Biso  1.000000 Mo
   S579       1.0     0.430838      0.297674      0.549404     Biso  1.000000 S
   S580       1.0     0.430838      0.297674      0.515401     Biso  1.000000 S
   Mo282      1.0     0.414405      0.286805      0.532403     Biso  1.000000 Mo
   S581       1.0     0.412012      0.326136      0.549404     Biso  1.000000 S
   S582       1.0     0.412012      0.326136      0.515401     Biso  1.000000 S
   Mo283      1.0     0.395580      0.315267      0.532403     Biso  1.000000 Mo
   S583       1.0     0.393187      0.354598      0.549404     Biso  1.000000 S
   S584       1.0     0.393187      0.354598      0.515401     Biso  1.000000 S
   Mo284      1.0     0.376754      0.343730      0.532403     Biso  1.000000 Mo
   S585       1.0     0.374362      0.383061      0.549404     Biso  1.000000 S
   S586       1.0     0.374362      0.383061      0.515401     Biso  1.000000 S
   Mo285      1.0     0.357929      0.372192      0.532403     Biso  1.000000 Mo
   S587       1.0     0.355536      0.411523      0.549404     Biso  1.000000 S
   S588       1.0     0.355536      0.411523      0.515401     Biso  1.000000 S
   Mo286      1.0     0.339104      0.400654      0.532403     Biso  1.000000 Mo
   S589       1.0     0.336711      0.439985      0.549404     Biso  1.000000 S
   S590       1.0     0.336711      0.439985      0.515401     Biso  1.000000 S
   Mo287      1.0     0.320278      0.429117      0.532403     Biso  1.000000 Mo
   S591       1.0     0.317886      0.468448      0.549404     Biso  1.000000 S
   S592       1.0     0.317886      0.468448      0.515401     Biso  1.000000 S
   Mo288      1.0     0.301453      0.457579      0.532403     Biso  1.000000 Mo
   S593       1.0     0.299061      0.496910      0.549404     Biso  1.000000 S
   S594       1.0     0.299061      0.496910      0.515401     Biso  1.000000 S
   Mo289      1.0     0.282628      0.486041      0.532403     Biso  1.000000 Mo
   S595       1.0     0.280235      0.525373      0.549404     Biso  1.000000 S
   S596       1.0     0.280235      0.525373      0.515401     Biso  1.000000 S
   Mo290      1.0     0.263803      0.514504      0.532403     Biso  1.000000 Mo
   S597       1.0     0.261410      0.553835      0.549404     Biso  1.000000 S
   S598       1.0     0.261410      0.553835      0.515401     Biso  1.000000 S
   S599       1.0     0.521375      0.214358      0.549404     Biso  1.000000 S
   S600       1.0     0.521375      0.214358      0.515401     Biso  1.000000 S
   S601       1.0     0.502550      0.242821      0.549404     Biso  1.000000 S
   S602       1.0     0.502550      0.242821      0.515401     Biso  1.000000 S
   Mo291      1.0     0.486117      0.231952      0.532403     Biso  1.000000 Mo
   S603       1.0     0.483725      0.271283      0.549404     Biso  1.000000 S
   S604       1.0     0.483725      0.271283      0.515401     Biso  1.000000 S
   Mo292      1.0     0.467292      0.260414      0.532403     Biso  1.000000 Mo
   S605       1.0     0.464899      0.299746      0.549404     Biso  1.000000 S
   S606       1.0     0.464899      0.299746      0.515401     Biso  1.000000 S
   Mo293      1.0     0.448467      0.288877      0.532403     Biso  1.000000 Mo
   S607       1.0     0.446074      0.328208      0.549404     Biso  1.000000 S
   S608       1.0     0.446074      0.328208      0.515401     Biso  1.000000 S
   Mo294      1.0     0.429641      0.317339      0.532403     Biso  1.000000 Mo
   S609       1.0     0.427249      0.356670      0.549404     Biso  1.000000 S
   S610       1.0     0.427249      0.356670      0.515401     Biso  1.000000 S
   Mo295      1.0     0.410816      0.345802      0.532403     Biso  1.000000 Mo
   S611       1.0     0.408424      0.385133      0.549404     Biso  1.000000 S
   S612       1.0     0.408424      0.385133      0.515401     Biso  1.000000 S
   Mo296      1.0     0.391991      0.374264      0.532403     Biso  1.000000 Mo
   S613       1.0     0.389598      0.413595      0.549404     Biso  1.000000 S
   S614       1.0     0.389598      0.413595      0.515401     Biso  1.000000 S
   Mo297      1.0     0.373166      0.402726      0.532403     Biso  1.000000 Mo
   S615       1.0     0.370773      0.442057      0.549404     Biso  1.000000 S
   S616       1.0     0.370773      0.442057      0.515401     Biso  1.000000 S
   Mo298      1.0     0.354340      0.431189      0.532403     Biso  1.000000 Mo
   S617       1.0     0.351948      0.470520      0.549404     Biso  1.000000 S
   S618       1.0     0.351948      0.470520      0.515401     Biso  1.000000 S
   Mo299      1.0     0.335515      0.459651      0.532403     Biso  1.000000 Mo
   S619       1.0     0.333122      0.498982      0.549404     Biso  1.000000 S
   S620       1.0     0.333122      0.498982      0.515401     Biso  1.000000 S
   Mo300      1.0     0.316690      0.488113      0.532403     Biso  1.000000 Mo
   S621       1.0     0.314297      0.527445      0.549404     Biso  1.000000 S
   S622       1.0     0.314297      0.527445      0.515401     Biso  1.000000 S
   Mo301      1.0     0.297864      0.516576      0.532403     Biso  1.000000 Mo
   S623       1.0     0.295472      0.555907      0.549404     Biso  1.000000 S
   S624       1.0     0.295472      0.555907      0.515401     Biso  1.000000 S
   Mo302      1.0     0.279039      0.545038      0.532403     Biso  1.000000 Mo
   S625       1.0     0.276647      0.584369      0.549404     Biso  1.000000 S
   S626       1.0     0.276647      0.584369      0.515401     Biso  1.000000 S
   Mo303      1.0     0.260214      0.573501      0.532403     Biso  1.000000 Mo
   S627       1.0     0.257821      0.612832      0.549404     Biso  1.000000 S
   S628       1.0     0.257821      0.612832      0.515401     Biso  1.000000 S
   S629       1.0     0.574262      0.187968      0.549404     Biso  1.000000 S
   S630       1.0     0.574262      0.187968      0.515401     Biso  1.000000 S
   S631       1.0     0.555437      0.216430      0.549404     Biso  1.000000 S
   S632       1.0     0.555437      0.216430      0.515401     Biso  1.000000 S
   Mo304      1.0     0.539004      0.205562      0.532403     Biso  1.000000 Mo
   S633       1.0     0.536612      0.244893      0.549404     Biso  1.000000 S
   S634       1.0     0.536612      0.244893      0.515401     Biso  1.000000 S
   Mo305      1.0     0.520179      0.234024      0.532403     Biso  1.000000 Mo
   S635       1.0     0.517786      0.273355      0.549404     Biso  1.000000 S
   S636       1.0     0.517786      0.273355      0.515401     Biso  1.000000 S
   Mo306      1.0     0.501354      0.262486      0.532403     Biso  1.000000 Mo
   S637       1.0     0.498961      0.301818      0.549404     Biso  1.000000 S
   S638       1.0     0.498961      0.301818      0.515401     Biso  1.000000 S
   Mo307      1.0     0.482528      0.290949      0.532403     Biso  1.000000 Mo
   S639       1.0     0.480136      0.330280      0.549404     Biso  1.000000 S
   S640       1.0     0.480136      0.330280      0.515401     Biso  1.000000 S
   Mo308      1.0     0.463703      0.319411      0.532403     Biso  1.000000 Mo
   S641       1.0     0.461311      0.358742      0.549404     Biso  1.000000 S
   S642       1.0     0.461311      0.358742      0.515401     Biso  1.000000 S
   Mo309      1.0     0.444878      0.347874      0.532403     Biso  1.000000 Mo
   S643       1.0     0.442485      0.387205      0.549404     Biso  1.000000 S
   S644       1.0     0.442485      0.387205      0.515401     Biso  1.000000 S
   Mo310      1.0     0.426053      0.376336      0.532403     Biso  1.000000 Mo
   S645       1.0     0.423660      0.415667      0.549404     Biso  1.000000 S
   S646       1.0     0.423660      0.415667      0.515401     Biso  1.000000 S
   Mo311      1.0     0.407227      0.404798      0.532403     Biso  1.000000 Mo
   S647       1.0     0.404835      0.444129      0.549404     Biso  1.000000 S
   S648       1.0     0.404835      0.444129      0.515401     Biso  1.000000 S
   Mo312      1.0     0.388402      0.433261      0.532403     Biso  1.000000 Mo
   S649       1.0     0.386010      0.472592      0.549404     Biso  1.000000 S
   S650       1.0     0.386010      0.472592      0.515401     Biso  1.000000 S
   Mo313      1.0     0.369577      0.461723      0.532403     Biso  1.000000 Mo
   S651       1.0     0.367184      0.501054      0.549404     Biso  1.000000 S
   S652       1.0     0.367184      0.501054      0.515401     Biso  1.000000 S
   Mo314      1.0     0.350752      0.490185      0.532403     Biso  1.000000 Mo
   S653       1.0     0.348359      0.529517      0.549404     Biso  1.000000 S
   S654       1.0     0.348359      0.529517      0.515401     Biso  1.000000 S
   Mo315      1.0     0.331926      0.518648      0.532403     Biso  1.000000 Mo
   S655       1.0     0.329534      0.557979      0.549404     Biso  1.000000 S
   S656       1.0     0.329534      0.557979      0.515401     Biso  1.000000 S
   Mo316      1.0     0.313101      0.547110      0.532403     Biso  1.000000 Mo
   S657       1.0     0.310708      0.586441      0.549404     Biso  1.000000 S
   S658       1.0     0.310708      0.586441      0.515401     Biso  1.000000 S
   Mo317      1.0     0.294276      0.575572      0.532403     Biso  1.000000 Mo
   S659       1.0     0.291883      0.614904      0.549404     Biso  1.000000 S
   S660       1.0     0.291883      0.614904      0.515401     Biso  1.000000 S
   Mo318      1.0     0.275450      0.604035      0.532403     Biso  1.000000 Mo
   S661       1.0     0.273058      0.643366      0.549404     Biso  1.000000 S
   S662       1.0     0.273058      0.643366      0.515401     Biso  1.000000 S
   Mo319      1.0     0.256625      0.632497      0.532403     Biso  1.000000 Mo
   S663       1.0     0.254233      0.671828      0.549404     Biso  1.000000 S
   S664       1.0     0.254233      0.671828      0.515401     Biso  1.000000 S
   S665       1.0     0.627149      0.161578      0.549404     Biso  1.000000 S
   S666       1.0     0.627149      0.161578      0.515401     Biso  1.000000 S
   S667       1.0     0.608324      0.190040      0.549404     Biso  1.000000 S
   S668       1.0     0.608324      0.190040      0.515401     Biso  1.000000 S
   Mo320      1.0     0.591891      0.179171      0.532403     Biso  1.000000 Mo
   S669       1.0     0.589499      0.218502      0.549404     Biso  1.000000 S
   S670       1.0     0.589499      0.218502      0.515401     Biso  1.000000 S
   Mo321      1.0     0.573066      0.207634      0.532403     Biso  1.000000 Mo
   S671       1.0     0.570673      0.246965      0.549404     Biso  1.000000 S
   S672       1.0     0.570673      0.246965      0.515401     Biso  1.000000 S
   Mo322      1.0     0.554241      0.236096      0.532403     Biso  1.000000 Mo
   S673       1.0     0.551848      0.275427      0.549404     Biso  1.000000 S
   S674       1.0     0.551848      0.275427      0.515401     Biso  1.000000 S
   Mo323      1.0     0.535415      0.264558      0.532403     Biso  1.000000 Mo
   S675       1.0     0.533023      0.303890      0.549404     Biso  1.000000 S
   S676       1.0     0.533023      0.303890      0.515401     Biso  1.000000 S
   Mo324      1.0     0.516590      0.293021      0.532403     Biso  1.000000 Mo
   S677       1.0     0.514198      0.332352      0.549404     Biso  1.000000 S
   S678       1.0     0.514198      0.332352      0.515401     Biso  1.000000 S
   Mo325      1.0     0.497765      0.321483      0.532403     Biso  1.000000 Mo
   S679       1.0     0.495372      0.360814      0.549404     Biso  1.000000 S
   S680       1.0     0.495372      0.360814      0.515401     Biso  1.000000 S
   Mo326      1.0     0.478940      0.349945      0.532403     Biso  1.000000 Mo
   S681       1.0     0.476547      0.389277      0.549404     Biso  1.000000 S
   S682       1.0     0.476547      0.389277      0.515401     Biso  1.000000 S
   Mo327      1.0     0.460114      0.378408      0.532403     Biso  1.000000 Mo
   S683       1.0     0.457722      0.417739      0.549404     Biso  1.000000 S
   S684       1.0     0.457722      0.417739      0.515401     Biso  1.000000 S
   Mo328      1.0     0.441289      0.406870      0.532403     Biso  1.000000 Mo
   S685       1.0     0.438897      0.446201      0.549404     Biso  1.000000 S
   S686       1.0     0.438897      0.446201      0.515401     Biso  1.000000 S
   Mo329      1.0     0.422464      0.435333      0.532403     Biso  1.000000 Mo
   S687       1.0     0.420071      0.474664      0.549404     Biso  1.000000 S
   S688       1.0     0.420071      0.474664      0.515401     Biso  1.000000 S
   Mo330      1.0     0.403639      0.463795      0.532403     Biso  1.000000 Mo
   S689       1.0     0.401246      0.503126      0.549404     Biso  1.000000 S
   S690       1.0     0.401246      0.503126      0.515401     Biso  1.000000 S
   Mo331      1.0     0.384813      0.492257      0.532403     Biso  1.000000 Mo
   S691       1.0     0.382421      0.531588      0.549404     Biso  1.000000 S
   S692       1.0     0.382421      0.531588      0.515401     Biso  1.000000 S
   Mo332      1.0     0.365988      0.520720      0.532403     Biso  1.000000 Mo
   S693       1.0     0.363595      0.560051      0.549404     Biso  1.000000 S
   S694       1.0     0.363595      0.560051      0.515401     Biso  1.000000 S
   Mo333      1.0     0.347163      0.549182      0.532403     Biso  1.000000 Mo
   S695       1.0     0.344770      0.588513      0.549404     Biso  1.000000 S
   S696       1.0     0.344770      0.588513      0.515401     Biso  1.000000 S
   Mo334      1.0     0.328337      0.577644      0.532403     Biso  1.000000 Mo
   S697       1.0     0.325945      0.616976      0.549404     Biso  1.000000 S
   S698       1.0     0.325945      0.616976      0.515401     Biso  1.000000 S
   Mo335      1.0     0.309512      0.606107      0.532403     Biso  1.000000 Mo
   S699       1.0     0.307120      0.645438      0.549404     Biso  1.000000 S
   S700       1.0     0.307120      0.645438      0.515401     Biso  1.000000 S
   Mo336      1.0     0.290687      0.634569      0.532403     Biso  1.000000 Mo
   S701       1.0     0.288294      0.673900      0.549404     Biso  1.000000 S
   S702       1.0     0.288294      0.673900      0.515401     Biso  1.000000 S
   Mo337      1.0     0.271862      0.663032      0.532403     Biso  1.000000 Mo
   S703       1.0     0.269469      0.702363      0.549404     Biso  1.000000 S
   S704       1.0     0.269469      0.702363      0.515401     Biso  1.000000 S
   Mo338      1.0     0.253036      0.691494      0.532403     Biso  1.000000 Mo
   S705       1.0     0.250644      0.730825      0.549404     Biso  1.000000 S
   S706       1.0     0.250644      0.730825      0.515401     Biso  1.000000 S
   S707       1.0     0.680036      0.135187      0.549404     Biso  1.000000 S
   S708       1.0     0.680036      0.135187      0.515401     Biso  1.000000 S
   S709       1.0     0.661211      0.163650      0.549404     Biso  1.000000 S
   S710       1.0     0.661211      0.163650      0.515401     Biso  1.000000 S
   Mo339      1.0     0.644778      0.152781      0.532403     Biso  1.000000 Mo
   S711       1.0     0.642386      0.192112      0.549404     Biso  1.000000 S
   S712       1.0     0.642386      0.192112      0.515401     Biso  1.000000 S
   Mo340      1.0     0.625953      0.181243      0.532403     Biso  1.000000 Mo
   S713       1.0     0.623560      0.220574      0.549404     Biso  1.000000 S
   S714       1.0     0.623560      0.220574      0.515401     Biso  1.000000 S
   Mo341      1.0     0.607128      0.209706      0.532403     Biso  1.000000 Mo
   S715       1.0     0.604735      0.249037      0.549404     Biso  1.000000 S
   S716       1.0     0.604735      0.249037      0.515401     Biso  1.000000 S
   Mo342      1.0     0.588302      0.238168      0.532403     Biso  1.000000 Mo
   S717       1.0     0.585910      0.277499      0.549404     Biso  1.000000 S
   S718       1.0     0.585910      0.277499      0.515401     Biso  1.000000 S
   Mo343      1.0     0.569477      0.266630      0.532403     Biso  1.000000 Mo
   S719       1.0     0.567085      0.305961      0.549404     Biso  1.000000 S
   S720       1.0     0.567085      0.305961      0.515401     Biso  1.000000 S
   Mo344      1.0     0.550652      0.295093      0.532403     Biso  1.000000 Mo
   S721       1.0     0.548259      0.334424      0.549404     Biso  1.000000 S
   S722       1.0     0.548259      0.334424      0.515401     Biso  1.000000 S
   Mo345      1.0     0.531827      0.323555      0.532403     Biso  1.000000 Mo
   S723       1.0     0.529434      0.362886      0.549404     Biso  1.000000 S
   S724       1.0     0.529434      0.362886      0.515401     Biso  1.000000 S
   Mo346      1.0     0.513001      0.352017      0.532403     Biso  1.000000 Mo
   S725       1.0     0.510609      0.391349      0.549404     Biso  1.000000 S
   S726       1.0     0.510609      0.391349      0.515401     Biso  1.000000 S
   Mo347      1.0     0.494176      0.380480      0.532403     Biso  1.000000 Mo
   S727       1.0     0.491784      0.419811      0.549404     Biso  1.000000 S
   S728       1.0     0.491784      0.419811      0.515401     Biso  1.000000 S
   Mo348      1.0     0.475351      0.408942      0.532403     Biso  1.000000 Mo
   S729       1.0     0.472958      0.448273      0.549404     Biso  1.000000 S
   S730       1.0     0.472958      0.448273      0.515401     Biso  1.000000 S
   Mo349      1.0     0.456526      0.437405      0.532403     Biso  1.000000 Mo
   S731       1.0     0.454133      0.476736      0.549404     Biso  1.000000 S
   S732       1.0     0.454133      0.476736      0.515401     Biso  1.000000 S
   Mo350      1.0     0.437700      0.465867      0.532403     Biso  1.000000 Mo
   S733       1.0     0.435308      0.505198      0.549404     Biso  1.000000 S
   S734       1.0     0.435308      0.505198      0.515401     Biso  1.000000 S
   Mo351      1.0     0.418875      0.494329      0.532403     Biso  1.000000 Mo
   S735       1.0     0.416483      0.533660      0.549404     Biso  1.000000 S
   S736       1.0     0.416483      0.533660      0.515401     Biso  1.000000 S
   Mo352      1.0     0.400050      0.522792      0.532403     Biso  1.000000 Mo
   S737       1.0     0.397657      0.562123      0.549404     Biso  1.000000 S
   S738       1.0     0.397657      0.562123      0.515401     Biso  1.000000 S
   Mo353      1.0     0.381225      0.551254      0.532403     Biso  1.000000 Mo
   S739       1.0     0.378832      0.590585      0.549404     Biso  1.000000 S
   S740       1.0     0.378832      0.590585      0.515401     Biso  1.000000 S
   Mo354      1.0     0.362399      0.579716      0.532403     Biso  1.000000 Mo
   S741       1.0     0.360007      0.619048      0.549404     Biso  1.000000 S
   S742       1.0     0.360007      0.619048      0.515401     Biso  1.000000 S
   Mo355      1.0     0.343574      0.608179      0.532403     Biso  1.000000 Mo
   S743       1.0     0.341181      0.647510      0.549404     Biso  1.000000 S
   S744       1.0     0.341181      0.647510      0.515401     Biso  1.000000 S
   Mo356      1.0     0.324749      0.636641      0.532403     Biso  1.000000 Mo
   S745       1.0     0.322356      0.675972      0.549404     Biso  1.000000 S
   S746       1.0     0.322356      0.675972      0.515401     Biso  1.000000 S
   Mo357      1.0     0.305923      0.665104      0.532403     Biso  1.000000 Mo
   S747       1.0     0.303531      0.704435      0.549404     Biso  1.000000 S
   S748       1.0     0.303531      0.704435      0.515401     Biso  1.000000 S
   Mo358      1.0     0.287098      0.693566      0.532403     Biso  1.000000 Mo
   S749       1.0     0.284706      0.732897      0.549404     Biso  1.000000 S
   S750       1.0     0.284706      0.732897      0.515401     Biso  1.000000 S
   Mo359      1.0     0.268273      0.722028      0.532403     Biso  1.000000 Mo
   S751       1.0     0.265880      0.761360      0.549404     Biso  1.000000 S
   S752       1.0     0.265880      0.761360      0.515401     Biso  1.000000 S
   Mo360      1.0     0.249448      0.750491      0.532403     Biso  1.000000 Mo
   S753       1.0     0.732923      0.108797      0.549404     Biso  1.000000 S
   S754       1.0     0.732923      0.108797      0.515401     Biso  1.000000 S
   S755       1.0     0.714098      0.137259      0.549404     Biso  1.000000 S
   S756       1.0     0.714098      0.137259      0.515401     Biso  1.000000 S
   Mo361      1.0     0.697665      0.126390      0.532403     Biso  1.000000 Mo
   S757       1.0     0.695273      0.165722      0.549404     Biso  1.000000 S
   S758       1.0     0.695273      0.165722      0.515401     Biso  1.000000 S
   Mo362      1.0     0.678840      0.154853      0.532403     Biso  1.000000 Mo
   S759       1.0     0.676448      0.194184      0.549404     Biso  1.000000 S
   S760       1.0     0.676448      0.194184      0.515401     Biso  1.000000 S
   Mo363      1.0     0.660015      0.183315      0.532403     Biso  1.000000 Mo
   S761       1.0     0.657622      0.222646      0.549404     Biso  1.000000 S
   S762       1.0     0.657622      0.222646      0.515401     Biso  1.000000 S
   Mo364      1.0     0.641190      0.211778      0.532403     Biso  1.000000 Mo
   S763       1.0     0.638797      0.251109      0.549404     Biso  1.000000 S
   S764       1.0     0.638797      0.251109      0.515401     Biso  1.000000 S
   Mo365      1.0     0.622364      0.240240      0.532403     Biso  1.000000 Mo
   S765       1.0     0.619972      0.279571      0.549404     Biso  1.000000 S
   S766       1.0     0.619972      0.279571      0.515401     Biso  1.000000 S
   Mo366      1.0     0.603539      0.268702      0.532403     Biso  1.000000 Mo
   S767       1.0     0.601146      0.308033      0.549404     Biso  1.000000 S
   S768       1.0     0.601146      0.308033      0.515401     Biso  1.000000 S
   Mo367      1.0     0.584714      0.297165      0.532403     Biso  1.000000 Mo
   S769       1.0     0.582321      0.336496      0.549404     Biso  1.000000 S
   S770       1.0     0.582321      0.336496      0.515401     Biso  1.000000 S
   Mo368      1.0     0.565888      0.325627      0.532403     Biso  1.000000 Mo
   S771       1.0     0.563496      0.364958      0.549404     Biso  1.000000 S
   S772       1.0     0.563496      0.364958      0.515401     Biso  1.000000 S
   Mo369      1.0     0.547063      0.354089      0.532403     Biso  1.000000 Mo
   S773       1.0     0.544671      0.393421      0.549404     Biso  1.000000 S
   S774       1.0     0.544671      0.393421      0.515401     Biso  1.000000 S
   Mo370      1.0     0.528238      0.382552      0.532403     Biso  1.000000 Mo
   S775       1.0     0.525845      0.421883      0.549404     Biso  1.000000 S
   S776       1.0     0.525845      0.421883      0.515401     Biso  1.000000 S
   Mo371      1.0     0.509413      0.411014      0.532403     Biso  1.000000 Mo
   S777       1.0     0.507020      0.450345      0.549404     Biso  1.000000 S
   S778       1.0     0.507020      0.450345      0.515401     Biso  1.000000 S
   Mo372      1.0     0.490587      0.439477      0.532403     Biso  1.000000 Mo
   S779       1.0     0.488195      0.478808      0.549404     Biso  1.000000 S
   S780       1.0     0.488195      0.478808      0.515401     Biso  1.000000 S
   Mo373      1.0     0.471762      0.467939      0.532403     Biso  1.000000 Mo
   S781       1.0     0.469370      0.507270      0.549404     Biso  1.000000 S
   S782       1.0     0.469370      0.507270      0.515401     Biso  1.000000 S
   Mo374      1.0     0.452937      0.496401      0.532403     Biso  1.000000 Mo
   S783       1.0     0.450544      0.535732      0.549404     Biso  1.000000 S
   S784       1.0     0.450544      0.535732      0.515401     Biso  1.000000 S
   Mo375      1.0     0.434112      0.524864      0.532403     Biso  1.000000 Mo
   S785       1.0     0.431719      0.564195      0.549404     Biso  1.000000 S
   S786       1.0     0.431719      0.564195      0.515401     Biso  1.000000 S
   Mo376      1.0     0.415286      0.553326      0.532403     Biso  1.000000 Mo
   S787       1.0     0.412894      0.592657      0.549404     Biso  1.000000 S
   S788       1.0     0.412894      0.592657      0.515401     Biso  1.000000 S
   Mo377      1.0     0.396461      0.581788      0.532403     Biso  1.000000 Mo
   S789       1.0     0.394069      0.621120      0.549404     Biso  1.000000 S
   S790       1.0     0.394069      0.621120      0.515401     Biso  1.000000 S
   Mo378      1.0     0.377636      0.610251      0.532403     Biso  1.000000 Mo
   S791       1.0     0.375243      0.649582      0.549404     Biso  1.000000 S
   S792       1.0     0.375243      0.649582      0.515401     Biso  1.000000 S
   Mo379      1.0     0.358810      0.638713      0.532403     Biso  1.000000 Mo
   S793       1.0     0.356418      0.678044      0.549404     Biso  1.000000 S
   S794       1.0     0.356418      0.678044      0.515401     Biso  1.000000 S
   Mo380      1.0     0.339985      0.667176      0.532403     Biso  1.000000 Mo
   S795       1.0     0.337593      0.706507      0.549404     Biso  1.000000 S
   S796       1.0     0.337593      0.706507      0.515401     Biso  1.000000 S
   Mo381      1.0     0.321160      0.695638      0.532403     Biso  1.000000 Mo
   S797       1.0     0.318767      0.734969      0.549404     Biso  1.000000 S
   S798       1.0     0.318767      0.734969      0.515401     Biso  1.000000 S
   Mo382      1.0     0.302335      0.724100      0.532403     Biso  1.000000 Mo
   S799       1.0     0.299942      0.763431      0.549404     Biso  1.000000 S
   S800       1.0     0.299942      0.763431      0.515401     Biso  1.000000 S
   Mo383      1.0     0.283509      0.752563      0.532403     Biso  1.000000 Mo
   S801       1.0     0.281117      0.791894      0.549404     Biso  1.000000 S
   S802       1.0     0.281117      0.791894      0.515401     Biso  1.000000 S
   Mo384      1.0     0.264684      0.781025      0.532403     Biso  1.000000 Mo
   S803       1.0     0.262292      0.820356      0.549404     Biso  1.000000 S
   S804       1.0     0.262292      0.820356      0.515401     Biso  1.000000 S
   Mo385      1.0     0.750552      0.100000      0.532403     Biso  1.000000 Mo
   S805       1.0     0.748160      0.139331      0.549404     Biso  1.000000 S
   S806       1.0     0.748160      0.139331      0.515401     Biso  1.000000 S
   Mo386      1.0     0.731727      0.128462      0.532403     Biso  1.000000 Mo
   S807       1.0     0.729335      0.167794      0.549404     Biso  1.000000 S
   S808       1.0     0.729335      0.167794      0.515401     Biso  1.000000 S
   Mo387      1.0     0.712902      0.156925      0.532403     Biso  1.000000 Mo
   S809       1.0     0.710509      0.196256      0.549404     Biso  1.000000 S
   S810       1.0     0.710509      0.196256      0.515401     Biso  1.000000 S
   Mo388      1.0     0.694077      0.185387      0.532403     Biso  1.000000 Mo
   S811       1.0     0.691684      0.224718      0.549404     Biso  1.000000 S
   S812       1.0     0.691684      0.224718      0.515401     Biso  1.000000 S
   Mo389      1.0     0.675251      0.213850      0.532403     Biso  1.000000 Mo
   S813       1.0     0.672859      0.253181      0.549404     Biso  1.000000 S
   S814       1.0     0.672859      0.253181      0.515401     Biso  1.000000 S
   Mo390      1.0     0.656426      0.242312      0.532403     Biso  1.000000 Mo
   S815       1.0     0.654034      0.281643      0.549404     Biso  1.000000 S
   S816       1.0     0.654034      0.281643      0.515401     Biso  1.000000 S
   Mo391      1.0     0.637601      0.270774      0.532403     Biso  1.000000 Mo
   S817       1.0     0.635208      0.310105      0.549404     Biso  1.000000 S
   S818       1.0     0.635208      0.310105      0.515401     Biso  1.000000 S
   Mo392      1.0     0.618775      0.299237      0.532403     Biso  1.000000 Mo
   S819       1.0     0.616383      0.338568      0.549404     Biso  1.000000 S
   S820       1.0     0.616383      0.338568      0.515401     Biso  1.000000 S
   Mo393      1.0     0.599950      0.327699      0.532403     Biso  1.000000 Mo
   S821       1.0     0.597558      0.367030      0.549404     Biso  1.000000 S
   S822       1.0     0.597558      0.367030      0.515401     Biso  1.000000 S
   Mo394      1.0     0.581125      0.356161      0.532403     Biso  1.000000 Mo
   S823       1.0     0.578732      0.395493      0.549404     Biso  1.000000 S
   S824       1.0     0.578732      0.395493      0.515401     Biso  1.000000 S
   Mo395      1.0     0.562300      0.384624      0.532403     Biso  1.000000 Mo
   S825       1.0     0.559907      0.423955      0.549404     Biso  1.000000 S
   S826       1.0     0.559907      0.423955      0.515401     Biso  1.000000 S
   Mo396      1.0     0.543474      0.413086      0.532403     Biso  1.000000 Mo
   S827       1.0     0.541082      0.452417      0.549404     Biso  1.000000 S
   S828       1.0     0.541082      0.452417      0.515401     Biso  1.000000 S
   Mo397      1.0     0.524649      0.441549      0.532403     Biso  1.000000 Mo
   S829       1.0     0.522257      0.480880      0.549404     Biso  1.000000 S
   S830       1.0     0.522257      0.480880      0.515401     Biso  1.000000 S
   Mo398      1.0     0.505824      0.470011      0.532403     Biso  1.000000 Mo
   S831       1.0     0.503431      0.509342      0.549404     Biso  1.000000 S
   S832       1.0     0.503431      0.509342      0.515401     Biso  1.000000 S
   Mo399      1.0     0.486999      0.498473      0.532403     Biso  1.000000 Mo
   S833       1.0     0.484606      0.537804      0.549404     Biso  1.000000 S
   S834       1.0     0.484606      0.537804      0.515401     Biso  1.000000 S
   Mo400      1.0     0.468173      0.526936      0.532403     Biso  1.000000 Mo
   S835       1.0     0.465781      0.566267      0.549404     Biso  1.000000 S
   S836       1.0     0.465781      0.566267      0.515401     Biso  1.000000 S
   Mo401      1.0     0.449348      0.555398      0.532403     Biso  1.000000 Mo
   S837       1.0     0.446956      0.594729      0.549404     Biso  1.000000 S
   S838       1.0     0.446956      0.594729      0.515401     Biso  1.000000 S
   Mo402      1.0     0.430523      0.583860      0.532403     Biso  1.000000 Mo
   S839       1.0     0.428130      0.623192      0.549404     Biso  1.000000 S
   S840       1.0     0.428130      0.623192      0.515401     Biso  1.000000 S
   Mo403      1.0     0.411698      0.612323      0.532403     Biso  1.000000 Mo
   S841       1.0     0.409305      0.651654      0.549404     Biso  1.000000 S
   S842       1.0     0.409305      0.651654      0.515401     Biso  1.000000 S
   Mo404      1.0     0.392872      0.640785      0.532403     Biso  1.000000 Mo
   S843       1.0     0.390480      0.680116      0.549404     Biso  1.000000 S
   S844       1.0     0.390480      0.680116      0.515401     Biso  1.000000 S
   Mo405      1.0     0.374047      0.669248      0.532403     Biso  1.000000 Mo
   S845       1.0     0.371654      0.708579      0.549404     Biso  1.000000 S
   S846       1.0     0.371654      0.708579      0.515401     Biso  1.000000 S
   Mo406      1.0     0.355222      0.697710      0.532403     Biso  1.000000 Mo
   S847       1.0     0.352829      0.737041      0.549404     Biso  1.000000 S
   S848       1.0     0.352829      0.737041      0.515401     Biso  1.000000 S
   Mo407      1.0     0.336396      0.726172      0.532403     Biso  1.000000 Mo
   S849       1.0     0.334004      0.765503      0.549404     Biso  1.000000 S
   S850       1.0     0.334004      0.765503      0.515401     Biso  1.000000 S
   Mo408      1.0     0.317571      0.754635      0.532403     Biso  1.000000 Mo
   S851       1.0     0.315179      0.793966      0.549404     Biso  1.000000 S
   S852       1.0     0.315179      0.793966      0.515401     Biso  1.000000 S
   Mo409      1.0     0.298746      0.783097      0.532403     Biso  1.000000 Mo
   S853       1.0     0.296353      0.822428      0.549404     Biso  1.000000 S
   S854       1.0     0.296353      0.822428      0.515401     Biso  1.000000 S
   Mo410      1.0     0.279921      0.811559      0.532403     Biso  1.000000 Mo
   S855       1.0     0.277528      0.850891      0.549404     Biso  1.000000 S
   S856       1.0     0.277528      0.850891      0.515401     Biso  1.000000 S
   Mo411      1.0     0.261095      0.840022      0.532403     Biso  1.000000 Mo
   S857       1.0     0.258703      0.879353      0.549404     Biso  1.000000 S
   S858       1.0     0.258703      0.879353      0.515401     Biso  1.000000 S
   Mo412      1.0     0.746964      0.158997      0.532403     Biso  1.000000 Mo
   S859       1.0     0.744571      0.198328      0.549404     Biso  1.000000 S
   S860       1.0     0.744571      0.198328      0.515401     Biso  1.000000 S
   Mo413      1.0     0.728138      0.187459      0.532403     Biso  1.000000 Mo
   S861       1.0     0.725746      0.226790      0.549404     Biso  1.000000 S
   S862       1.0     0.725746      0.226790      0.515401     Biso  1.000000 S
   Mo414      1.0     0.709313      0.215921      0.532403     Biso  1.000000 Mo
   S863       1.0     0.706921      0.255253      0.549404     Biso  1.000000 S
   S864       1.0     0.706921      0.255253      0.515401     Biso  1.000000 S
   Mo415      1.0     0.690488      0.244384      0.532403     Biso  1.000000 Mo
   S865       1.0     0.688095      0.283715      0.549404     Biso  1.000000 S
   S866       1.0     0.688095      0.283715      0.515401     Biso  1.000000 S
   Mo416      1.0     0.671663      0.272846      0.532403     Biso  1.000000 Mo
   S867       1.0     0.669270      0.312177      0.549404     Biso  1.000000 S
   S868       1.0     0.669270      0.312177      0.515401     Biso  1.000000 S
   Mo417      1.0     0.652837      0.301309      0.532403     Biso  1.000000 Mo
   S869       1.0     0.650445      0.340640      0.549404     Biso  1.000000 S
   S870       1.0     0.650445      0.340640      0.515401     Biso  1.000000 S
   Mo418      1.0     0.634012      0.329771      0.532403     Biso  1.000000 Mo
   S871       1.0     0.631619      0.369102      0.549404     Biso  1.000000 S
   S872       1.0     0.631619      0.369102      0.515401     Biso  1.000000 S
   Mo419      1.0     0.615187      0.358233      0.532403     Biso  1.000000 Mo
   S873       1.0     0.612794      0.397565      0.549404     Biso  1.000000 S
   S874       1.0     0.612794      0.397565      0.515401     Biso  1.000000 S
   Mo420      1.0     0.596361      0.386696      0.532403     Biso  1.000000 Mo
   S875       1.0     0.593969      0.426027      0.549404     Biso  1.000000 S
   S876       1.0     0.593969      0.426027      0.515401     Biso  1.000000 S
   Mo421      1.0     0.577536      0.415158      0.532403     Biso  1.000000 Mo
   S877       1.0     0.575144      0.454489      0.549404     Biso  1.000000 S
   S878       1.0     0.575144      0.454489      0.515401     Biso  1.000000 S
   Mo422      1.0     0.558711      0.443621      0.532403     Biso  1.000000 Mo
   S879       1.0     0.556318      0.482952      0.549404     Biso  1.000000 S
   S880       1.0     0.556318      0.482952      0.515401     Biso  1.000000 S
   Mo423      1.0     0.539886      0.472083      0.532403     Biso  1.000000 Mo
   S881       1.0     0.537493      0.511414      0.549404     Biso  1.000000 S
   S882       1.0     0.537493      0.511414      0.515401     Biso  1.000000 S
   Mo424      1.0     0.521060      0.500545      0.532403     Biso  1.000000 Mo
   S883       1.0     0.518668      0.539876      0.549404     Biso  1.000000 S
   S884       1.0     0.518668      0.539876      0.515401     Biso  1.000000 S
   Mo425      1.0     0.502235      0.529008      0.532403     Biso  1.000000 Mo
   S885       1.0     0.499843      0.568339      0.549404     Biso  1.000000 S
   S886       1.0     0.499843      0.568339      0.515401     Biso  1.000000 S
   Mo426      1.0     0.483410      0.557470      0.532403     Biso  1.000000 Mo
   S887       1.0     0.481017      0.596801      0.549404     Biso  1.000000 S
   S888       1.0     0.481017      0.596801      0.515401     Biso  1.000000 S
   Mo427      1.0     0.464585      0.585932      0.532403     Biso  1.000000 Mo
   S889       1.0     0.462192      0.625264      0.549404     Biso  1.000000 S
   S890       1.0     0.462192      0.625264      0.515401     Biso  1.000000 S
   Mo428      1.0     0.445759      0.614395      0.532403     Biso  1.000000 Mo
   S891       1.0     0.443367      0.653726      0.549404     Biso  1.000000 S
   S892       1.0     0.443367      0.653726      0.515401     Biso  1.000000 S
   Mo429      1.0     0.426934      0.642857      0.532403     Biso  1.000000 Mo
   S893       1.0     0.424542      0.682188      0.549404     Biso  1.000000 S
   S894       1.0     0.424542      0.682188      0.515401     Biso  1.000000 S
   Mo430      1.0     0.408109      0.671320      0.532403     Biso  1.000000 Mo
   S895       1.0     0.405716      0.710651      0.549404     Biso  1.000000 S
   S896       1.0     0.405716      0.710651      0.515401     Biso  1.000000 S
   Mo431      1.0     0.389283      0.699782      0.532403     Biso  1.000000 Mo
   S897       1.0     0.386891      0.739113      0.549404     Biso  1.000000 S
   S898       1.0     0.386891      0.739113      0.515401     Biso  1.000000 S
   Mo432      1.0     0.370458      0.728244      0.532403     Biso  1.000000 Mo
   S899       1.0     0.368066      0.767575      0.549404     Biso  1.000000 S
   S900       1.0     0.368066      0.767575      0.515401     Biso  1.000000 S
   Mo433      1.0     0.351633      0.756707      0.532403     Biso  1.000000 Mo
   S901       1.0     0.349240      0.796038      0.549404     Biso  1.000000 S
   S902       1.0     0.349240      0.796038      0.515401     Biso  1.000000 S
   Mo434      1.0     0.332808      0.785169      0.532403     Biso  1.000000 Mo
   S903       1.0     0.330415      0.824500      0.549404     Biso  1.000000 S
   S904       1.0     0.330415      0.824500      0.515401     Biso  1.000000 S
   Mo435      1.0     0.313982      0.813631      0.532403     Biso  1.000000 Mo
   S905       1.0     0.311590      0.852963      0.549404     Biso  1.000000 S
   S906       1.0     0.311590      0.852963      0.515401     Biso  1.000000 S
   Mo436      1.0     0.295157      0.842094      0.532403     Biso  1.000000 Mo
   S907       1.0     0.292765      0.881425      0.549404     Biso  1.000000 S
   S908       1.0     0.292765      0.881425      0.515401     Biso  1.000000 S
   Mo437      1.0     0.276332      0.870556      0.532403     Biso  1.000000 Mo
   Mo438      1.0     0.257507      0.899019      0.532403     Biso  1.000000 Mo
   Mo439      1.0     0.743375      0.217993      0.532403     Biso  1.000000 Mo
   S909       1.0     0.740982      0.257325      0.549404     Biso  1.000000 S
   S910       1.0     0.740982      0.257325      0.515401     Biso  1.000000 S
   Mo440      1.0     0.724550      0.246456      0.532403     Biso  1.000000 Mo
   S911       1.0     0.722157      0.285787      0.549404     Biso  1.000000 S
   S912       1.0     0.722157      0.285787      0.515401     Biso  1.000000 S
   Mo441      1.0     0.705724      0.274918      0.532403     Biso  1.000000 Mo
   S913       1.0     0.703332      0.314249      0.549404     Biso  1.000000 S
   S914       1.0     0.703332      0.314249      0.515401     Biso  1.000000 S
   Mo442      1.0     0.686899      0.303381      0.532403     Biso  1.000000 Mo
   S915       1.0     0.684507      0.342712      0.549404     Biso  1.000000 S
   S916       1.0     0.684507      0.342712      0.515401     Biso  1.000000 S
   Mo443      1.0     0.668074      0.331843      0.532403     Biso  1.000000 Mo
   S917       1.0     0.665681      0.371174      0.549404     Biso  1.000000 S
   S918       1.0     0.665681      0.371174      0.515401     Biso  1.000000 S
   Mo444      1.0     0.649248      0.360305      0.532403     Biso  1.000000 Mo
   S919       1.0     0.646856      0.399637      0.549404     Biso  1.000000 S
   S920       1.0     0.646856      0.399637      0.515401     Biso  1.000000 S
   Mo445      1.0     0.630423      0.388768      0.532403     Biso  1.000000 Mo
   S921       1.0     0.628031      0.428099      0.549404     Biso  1.000000 S
   S922       1.0     0.628031      0.428099      0.515401     Biso  1.000000 S
   Mo446      1.0     0.611598      0.417230      0.532403     Biso  1.000000 Mo
   S923       1.0     0.609205      0.456561      0.549404     Biso  1.000000 S
   S924       1.0     0.609205      0.456561      0.515401     Biso  1.000000 S
   Mo447      1.0     0.592773      0.445692      0.532403     Biso  1.000000 Mo
   S925       1.0     0.590380      0.485024      0.549404     Biso  1.000000 S
   S926       1.0     0.590380      0.485024      0.515401     Biso  1.000000 S
   Mo448      1.0     0.573947      0.474155      0.532403     Biso  1.000000 Mo
   S927       1.0     0.571555      0.513486      0.549404     Biso  1.000000 S
   S928       1.0     0.571555      0.513486      0.515401     Biso  1.000000 S
   Mo449      1.0     0.555122      0.502617      0.532403     Biso  1.000000 Mo
   S929       1.0     0.552730      0.541948      0.549404     Biso  1.000000 S
   S930       1.0     0.552730      0.541948      0.515401     Biso  1.000000 S
   Mo450      1.0     0.536297      0.531080      0.532403     Biso  1.000000 Mo
   S931       1.0     0.533904      0.570411      0.549404     Biso  1.000000 S
   S932       1.0     0.533904      0.570411      0.515401     Biso  1.000000 S
   Mo451      1.0     0.517472      0.559542      0.532403     Biso  1.000000 Mo
   S933       1.0     0.515079      0.598873      0.549404     Biso  1.000000 S
   S934       1.0     0.515079      0.598873      0.515401     Biso  1.000000 S
   Mo452      1.0     0.498646      0.588004      0.532403     Biso  1.000000 Mo
   S935       1.0     0.496254      0.627336      0.549404     Biso  1.000000 S
   S936       1.0     0.496254      0.627336      0.515401     Biso  1.000000 S
   Mo453      1.0     0.479821      0.616467      0.532403     Biso  1.000000 Mo
   S937       1.0     0.477429      0.655798      0.549404     Biso  1.000000 S
   S938       1.0     0.477429      0.655798      0.515401     Biso  1.000000 S
   Mo454      1.0     0.460996      0.644929      0.532403     Biso  1.000000 Mo
   S939       1.0     0.458603      0.684260      0.549404     Biso  1.000000 S
   S940       1.0     0.458603      0.684260      0.515401     Biso  1.000000 S
   Mo455      1.0     0.442171      0.673392      0.532403     Biso  1.000000 Mo
   S941       1.0     0.439778      0.712723      0.549404     Biso  1.000000 S
   S942       1.0     0.439778      0.712723      0.515401     Biso  1.000000 S
   Mo456      1.0     0.423345      0.701854      0.532403     Biso  1.000000 Mo
   S943       1.0     0.420953      0.741185      0.549404     Biso  1.000000 S
   S944       1.0     0.420953      0.741185      0.515401     Biso  1.000000 S
   Mo457      1.0     0.404520      0.730316      0.532403     Biso  1.000000 Mo
   S945       1.0     0.402127      0.769647      0.549404     Biso  1.000000 S
   S946       1.0     0.402127      0.769647      0.515401     Biso  1.000000 S
   Mo458      1.0     0.385695      0.758779      0.532403     Biso  1.000000 Mo
   S947       1.0     0.383302      0.798110      0.549404     Biso  1.000000 S
   S948       1.0     0.383302      0.798110      0.515401     Biso  1.000000 S
   Mo459      1.0     0.366869      0.787241      0.532403     Biso  1.000000 Mo
   S949       1.0     0.364477      0.826572      0.549404     Biso  1.000000 S
   S950       1.0     0.364477      0.826572      0.515401     Biso  1.000000 S
   Mo460      1.0     0.348044      0.815703      0.532403     Biso  1.000000 Mo
   S951       1.0     0.345652      0.855035      0.549404     Biso  1.000000 S
   S952       1.0     0.345652      0.855035      0.515401     Biso  1.000000 S
   Mo461      1.0     0.329219      0.844166      0.532403     Biso  1.000000 Mo
   Mo462      1.0     0.310394      0.872628      0.532403     Biso  1.000000 Mo
   Mo463      1.0     0.739786      0.276990      0.532403     Biso  1.000000 Mo
   S953       1.0     0.737394      0.316321      0.549404     Biso  1.000000 S
   S954       1.0     0.737394      0.316321      0.515401     Biso  1.000000 S
   Mo464      1.0     0.720961      0.305453      0.532403     Biso  1.000000 Mo
   S955       1.0     0.718568      0.344784      0.549404     Biso  1.000000 S
   S956       1.0     0.718568      0.344784      0.515401     Biso  1.000000 S
   Mo465      1.0     0.702136      0.333915      0.532403     Biso  1.000000 Mo
   S957       1.0     0.699743      0.373246      0.549404     Biso  1.000000 S
   S958       1.0     0.699743      0.373246      0.515401     Biso  1.000000 S
   Mo466      1.0     0.683310      0.362377      0.532403     Biso  1.000000 Mo
   S959       1.0     0.680918      0.401708      0.549404     Biso  1.000000 S
   S960       1.0     0.680918      0.401708      0.515401     Biso  1.000000 S
   Mo467      1.0     0.664485      0.390840      0.532403     Biso  1.000000 Mo
   S961       1.0     0.662093      0.430171      0.549404     Biso  1.000000 S
   S962       1.0     0.662093      0.430171      0.515401     Biso  1.000000 S
   Mo468      1.0     0.645660      0.419302      0.532403     Biso  1.000000 Mo
   S963       1.0     0.643267      0.458633      0.549404     Biso  1.000000 S
   S964       1.0     0.643267      0.458633      0.515401     Biso  1.000000 S
   Mo469      1.0     0.626834      0.447764      0.532403     Biso  1.000000 Mo
   S965       1.0     0.624442      0.487096      0.549404     Biso  1.000000 S
   S966       1.0     0.624442      0.487096      0.515401     Biso  1.000000 S
   Mo470      1.0     0.608009      0.476227      0.532403     Biso  1.000000 Mo
   S967       1.0     0.605617      0.515558      0.549404     Biso  1.000000 S
   S968       1.0     0.605617      0.515558      0.515401     Biso  1.000000 S
   Mo471      1.0     0.589184      0.504689      0.532403     Biso  1.000000 Mo
   S969       1.0     0.586791      0.544020      0.549404     Biso  1.000000 S
   S970       1.0     0.586791      0.544020      0.515401     Biso  1.000000 S
   Mo472      1.0     0.570359      0.533152      0.532403     Biso  1.000000 Mo
   S971       1.0     0.567966      0.572483      0.549404     Biso  1.000000 S
   S972       1.0     0.567966      0.572483      0.515401     Biso  1.000000 S
   Mo473      1.0     0.551533      0.561614      0.532403     Biso  1.000000 Mo
   S973       1.0     0.549141      0.600945      0.549404     Biso  1.000000 S
   S974       1.0     0.549141      0.600945      0.515401     Biso  1.000000 S
   Mo474      1.0     0.532708      0.590076      0.532403     Biso  1.000000 Mo
   S975       1.0     0.530316      0.629408      0.549404     Biso  1.000000 S
   S976       1.0     0.530316      0.629408      0.515401     Biso  1.000000 S
   Mo475      1.0     0.513883      0.618539      0.532403     Biso  1.000000 Mo
   S977       1.0     0.511490      0.657870      0.549404     Biso  1.000000 S
   S978       1.0     0.511490      0.657870      0.515401     Biso  1.000000 S
   Mo476      1.0     0.495058      0.647001      0.532403     Biso  1.000000 Mo
   S979       1.0     0.492665      0.686332      0.549404     Biso  1.000000 S
   S980       1.0     0.492665      0.686332      0.515401     Biso  1.000000 S
   Mo477      1.0     0.476232      0.675463      0.532403     Biso  1.000000 Mo
   S981       1.0     0.473840      0.714795      0.549404     Biso  1.000000 S
   S982       1.0     0.473840      0.714795      0.515401     Biso  1.000000 S
   Mo478      1.0     0.457407      0.703926      0.532403     Biso  1.000000 Mo
   S983       1.0     0.455015      0.743257      0.549404     Biso  1.000000 S
   S984       1.0     0.455015      0.743257      0.515401     Biso  1.000000 S
   Mo479      1.0     0.438582      0.732388      0.532403     Biso  1.000000 Mo
   S985       1.0     0.436189      0.771719      0.549404     Biso  1.000000 S
   S986       1.0     0.436189      0.771719      0.515401     Biso  1.000000 S
   Mo480      1.0     0.419756      0.760851      0.532403     Biso  1.000000 Mo
   S987       1.0     0.417364      0.800182      0.549404     Biso  1.000000 S
   S988       1.0     0.417364      0.800182      0.515401     Biso  1.000000 S
   Mo481      1.0     0.400931      0.789313      0.532403     Biso  1.000000 Mo
   Mo482      1.0     0.382106      0.817775      0.532403     Biso  1.000000 Mo
   Mo483      1.0     0.363281      0.846238      0.532403     Biso  1.000000 Mo
   Mo484      1.0     0.736197      0.335987      0.532403     Biso  1.000000 Mo
   S989       1.0     0.733805      0.375318      0.549404     Biso  1.000000 S
   S990       1.0     0.733805      0.375318      0.515401     Biso  1.000000 S
   Mo485      1.0     0.717372      0.364449      0.532403     Biso  1.000000 Mo
   S991       1.0     0.714980      0.403780      0.549404     Biso  1.000000 S
   S992       1.0     0.714980      0.403780      0.515401     Biso  1.000000 S
   Mo486      1.0     0.698547      0.392912      0.532403     Biso  1.000000 Mo
   S993       1.0     0.696154      0.432243      0.549404     Biso  1.000000 S
   S994       1.0     0.696154      0.432243      0.515401     Biso  1.000000 S
   Mo487      1.0     0.679721      0.421374      0.532403     Biso  1.000000 Mo
   S995       1.0     0.677329      0.460705      0.549404     Biso  1.000000 S
   S996       1.0     0.677329      0.460705      0.515401     Biso  1.000000 S
   Mo488      1.0     0.660896      0.449836      0.532403     Biso  1.000000 Mo
   S997       1.0     0.658504      0.489168      0.549404     Biso  1.000000 S
   S998       1.0     0.658504      0.489168      0.515401     Biso  1.000000 S
   Mo489      1.0     0.642071      0.478299      0.532403     Biso  1.000000 Mo
   S999       1.0     0.639678      0.517630      0.549404     Biso  1.000000 S
   S1000      1.0     0.639678      0.517630      0.515401     Biso  1.000000 S
   Mo490      1.0     0.623246      0.506761      0.532403     Biso  1.000000 Mo
   S1001      1.0     0.620853      0.546092      0.549404     Biso  1.000000 S
   S1002      1.0     0.620853      0.546092      0.515401     Biso  1.000000 S
   Mo491      1.0     0.604420      0.535224      0.532403     Biso  1.000000 Mo
   S1003      1.0     0.602028      0.574555      0.549404     Biso  1.000000 S
   S1004      1.0     0.602028      0.574555      0.515401     Biso  1.000000 S
   Mo492      1.0     0.585595      0.563686      0.532403     Biso  1.000000 Mo
   S1005      1.0     0.583203      0.603017      0.549404     Biso  1.000000 S
   S1006      1.0     0.583203      0.603017      0.515401     Biso  1.000000 S
   Mo493      1.0     0.566770      0.592148      0.532403     Biso  1.000000 Mo
   S1007      1.0     0.564377      0.631480      0.549404     Biso  1.000000 S
   S1008      1.0     0.564377      0.631480      0.515401     Biso  1.000000 S
   Mo494      1.0     0.547945      0.620611      0.532403     Biso  1.000000 Mo
   S1009      1.0     0.545552      0.659942      0.549404     Biso  1.000000 S
   S1010      1.0     0.545552      0.659942      0.515401     Biso  1.000000 S
   Mo495      1.0     0.529119      0.649073      0.532403     Biso  1.000000 Mo
   S1011      1.0     0.526727      0.688404      0.549404     Biso  1.000000 S
   S1012      1.0     0.526727      0.688404      0.515401     Biso  1.000000 S
   Mo496      1.0     0.510294      0.677535      0.532403     Biso  1.000000 Mo
   S1013      1.0     0.507902      0.716867      0.549404     Biso  1.000000 S
   S1014      1.0     0.507902      0.716867      0.515401     Biso  1.000000 S
   Mo497      1.0     0.491469      0.705998      0.532403     Biso  1.000000 Mo
   S1015      1.0     0.489076      0.745329      0.549404     Biso  1.000000 S
   S1016      1.0     0.489076      0.745329      0.515401     Biso  1.000000 S
   Mo498      1.0     0.472644      0.734460      0.532403     Biso  1.000000 Mo
   S1017      1.0     0.470251      0.773791      0.549404     Biso  1.000000 S
   S1018      1.0     0.470251      0.773791      0.515401     Biso  1.000000 S
   Mo499      1.0     0.453818      0.762923      0.532403     Biso  1.000000 Mo
   Mo500      1.0     0.434993      0.791385      0.532403     Biso  1.000000 Mo
   Mo501      1.0     0.732609      0.394984      0.532403     Biso  1.000000 Mo
   S1019      1.0     0.730216      0.434315      0.549404     Biso  1.000000 S
   S1020      1.0     0.730216      0.434315      0.515401     Biso  1.000000 S
   Mo502      1.0     0.713783      0.423446      0.532403     Biso  1.000000 Mo
   S1021      1.0     0.711391      0.462777      0.549404     Biso  1.000000 S
   S1022      1.0     0.711391      0.462777      0.515401     Biso  1.000000 S
   Mo503      1.0     0.694958      0.451908      0.532403     Biso  1.000000 Mo
   S1023      1.0     0.692566      0.491240      0.549404     Biso  1.000000 S
   S1024      1.0     0.692566      0.491240      0.515401     Biso  1.000000 S
   Mo504      1.0     0.676133      0.480371      0.532403     Biso  1.000000 Mo
   S1025      1.0     0.673740      0.519702      0.549404     Biso  1.000000 S
   S1026      1.0     0.673740      0.519702      0.515401     Biso  1.000000 S
   Mo505      1.0     0.657308      0.508833      0.532403     Biso  1.000000 Mo
   S1027      1.0     0.654915      0.548164      0.549404     Biso  1.000000 S
   S1028      1.0     0.654915      0.548164      0.515401     Biso  1.000000 S
   Mo506      1.0     0.638482      0.537296      0.532403     Biso  1.000000 Mo
   S1029      1.0     0.636090      0.576627      0.549404     Biso  1.000000 S
   S1030      1.0     0.636090      0.576627      0.515401     Biso  1.000000 S
   Mo507      1.0     0.619657      0.565758      0.532403     Biso  1.000000 Mo
   S1031      1.0     0.617264      0.605089      0.549404     Biso  1.000000 S
   S1032      1.0     0.617264      0.605089      0.515401     Biso  1.000000 S
   Mo508      1.0     0.600832      0.594220      0.532403     Biso  1.000000 Mo
   S1033      1.0     0.598439      0.633551      0.549404     Biso  1.000000 S
   S1034      1.0     0.598439      0.633551      0.515401     Biso  1.000000 S
   Mo509      1.0     0.582006      0.622683      0.532403     Biso  1.000000 Mo
   S1035      1.0     0.579614      0.662014      0.549404     Biso  1.000000 S
   S1036      1.0     0.579614      0.662014      0.515401     Biso  1.000000 S
   Mo510      1.0     0.563181      0.651145      0.532403     Biso  1.000000 Mo
   S1037      1.0     0.560789      0.690476      0.549404     Biso  1.000000 S
   S1038      1.0     0.560789      0.690476      0.515401     Biso  1.000000 S
   Mo511      1.0     0.544356      0.679607      0.532403     Biso  1.000000 Mo
   S1039      1.0     0.541963      0.718939      0.549404     Biso  1.000000 S
   S1040      1.0     0.541963      0.718939      0.515401     Biso  1.000000 S
   Mo512      1.0     0.525531      0.708070      0.532403     Biso  1.000000 Mo
   S1041      1.0     0.523138      0.747401      0.549404     Biso  1.000000 S
   S1042      1.0     0.523138      0.747401      0.515401     Biso  1.000000 S
   Mo513      1.0     0.506705      0.736532      0.532403     Biso  1.000000 Mo
   Mo514      1.0     0.487880      0.764995      0.532403     Biso  1.000000 Mo
   Mo515      1.0     0.729020      0.453980      0.532403     Biso  1.000000 Mo
   S1043      1.0     0.726627      0.493312      0.549404     Biso  1.000000 S
   S1044      1.0     0.726627      0.493312      0.515401     Biso  1.000000 S
   Mo516      1.0     0.710195      0.482443      0.532403     Biso  1.000000 Mo
   S1045      1.0     0.707802      0.521774      0.549404     Biso  1.000000 S
   S1046      1.0     0.707802      0.521774      0.515401     Biso  1.000000 S
   Mo517      1.0     0.691369      0.510905      0.532403     Biso  1.000000 Mo
   S1047      1.0     0.688977      0.550236      0.549404     Biso  1.000000 S
   S1048      1.0     0.688977      0.550236      0.515401     Biso  1.000000 S
   Mo518      1.0     0.672544      0.539367      0.532403     Biso  1.000000 Mo
   S1049      1.0     0.670151      0.578699      0.549404     Biso  1.000000 S
   S1050      1.0     0.670151      0.578699      0.515401     Biso  1.000000 S
   Mo519      1.0     0.653719      0.567830      0.532403     Biso  1.000000 Mo
   S1051      1.0     0.651326      0.607161      0.549404     Biso  1.000000 S
   S1052      1.0     0.651326      0.607161      0.515401     Biso  1.000000 S
   Mo520      1.0     0.634893      0.596292      0.532403     Biso  1.000000 Mo
   S1053      1.0     0.632501      0.635623      0.549404     Biso  1.000000 S
   S1054      1.0     0.632501      0.635623      0.515401     Biso  1.000000 S
   Mo521      1.0     0.616068      0.624755      0.532403     Biso  1.000000 Mo
   S1055      1.0     0.613676      0.664086      0.549404     Biso  1.000000 S
   S1056      1.0     0.613676      0.664086      0.515401     Biso  1.000000 S
   Mo522      1.0     0.597243      0.653217      0.532403     Biso  1.000000 Mo
   S1057      1.0     0.594850      0.692548      0.549404     Biso  1.000000 S
   S1058      1.0     0.594850      0.692548      0.515401     Biso  1.000000 S
   Mo523      1.0     0.578418      0.681679      0.532403     Biso  1.000000 Mo
   S1059      1.0     0.576025      0.721011      0.549404     Biso  1.000000 S
   S1060      1.0     0.576025      0.721011      0.515401     Biso  1.000000 S
   Mo524      1.0     0.559592      0.710142      0.532403     Biso  1.000000 Mo
   Mo525      1.0     0.540767      0.738604      0.532403     Biso  1.000000 Mo
   S1061      1.0     0.741864      0.523846      0.549404     Biso  1.000000 S
   S1062      1.0     0.741864      0.523846      0.515401     Biso  1.000000 S
   Mo526      1.0     0.725431      0.512977      0.532403     Biso  1.000000 Mo
   S1063      1.0     0.723039      0.552308      0.549404     Biso  1.000000 S
   S1064      1.0     0.723039      0.552308      0.515401     Biso  1.000000 S
   Mo527      1.0     0.706606      0.541440      0.532403     Biso  1.000000 Mo
   S1065      1.0     0.704213      0.580771      0.549404     Biso  1.000000 S
   S1066      1.0     0.704213      0.580771      0.515401     Biso  1.000000 S
   Mo528      1.0     0.687780      0.569902      0.532403     Biso  1.000000 Mo
   S1067      1.0     0.685388      0.609233      0.549404     Biso  1.000000 S
   S1068      1.0     0.685388      0.609233      0.515401     Biso  1.000000 S
   Mo529      1.0     0.668955      0.598364      0.532403     Biso  1.000000 Mo
   S1069      1.0     0.666563      0.637695      0.549404     Biso  1.000000 S
   S1070      1.0     0.666563      0.637695      0.515401     Biso  1.000000 S
   Mo530      1.0     0.650130      0.626827      0.532403     Biso  1.000000 Mo
   S1071      1.0     0.647737      0.666158      0.549404     Biso  1.000000 S
   S1072      1.0     0.647737      0.666158      0.515401     Biso  1.000000 S
   Mo531      1.0     0.631305      0.655289      0.532403     Biso  1.000000 Mo
   S1073      1.0     0.628912      0.694620      0.549404     Biso  1.000000 S
   S1074      1.0     0.628912      0.694620      0.515401     Biso  1.000000 S
   Mo532      1.0     0.612479      0.683751      0.532403     Biso  1.000000 Mo
   Mo533      1.0     0.593654      0.712214      0.532403     Biso  1.000000 Mo
   Mo534      1.0     0.740668      0.543511      0.532403     Biso  1.000000 Mo
   S1075      1.0     0.738275      0.582843      0.549404     Biso  1.000000 S
   S1076      1.0     0.738275      0.582843      0.515401     Biso  1.000000 S
   Mo535      1.0     0.721842      0.571974      0.532403     Biso  1.000000 Mo
   S1077      1.0     0.719450      0.611305      0.549404     Biso  1.000000 S
   S1078      1.0     0.719450      0.611305      0.515401     Biso  1.000000 S
   Mo536      1.0     0.703017      0.600436      0.532403     Biso  1.000000 Mo
   S1079      1.0     0.700624      0.639767      0.549404     Biso  1.000000 S
   S1080      1.0     0.700624      0.639767      0.515401     Biso  1.000000 S
   Mo537      1.0     0.684192      0.628899      0.532403     Biso  1.000000 Mo
   S1081      1.0     0.681799      0.668230      0.549404     Biso  1.000000 S
   S1082      1.0     0.681799      0.668230      0.515401     Biso  1.000000 S
   Mo538      1.0     0.665366      0.657361      0.532403     Biso  1.000000 Mo
   Mo539      1.0     0.646541      0.685823      0.532403     Biso  1.000000 Mo
   Mo540      1.0     0.737079      0.602508      0.532403     Biso  1.000000 Mo
   S1083      1.0     0.734686      0.641839      0.549404     Biso  1.000000 S
   S1084      1.0     0.734686      0.641839      0.515401     Biso  1.000000 S
   Mo541      1.0     0.718253      0.630971      0.532403     Biso  1.000000 Mo
   Mo542      1.0     0.699428      0.659433      0.532403     Biso  1.000000 Mo
